@<TRIPOS>MOLECULE
mol_484_akc_cbdd12123
>468.sdf
 24 26 0 0 0
SMALL
GASTEIGER

@<TRIPOS>ATOM
      1 N           1.2573   -0.5067   -0.1454 N.pl3   1  UNL1       -0.3375
      2 C           2.5566   -0.1779   -0.0779 C.ar    1  UNL1        0.1568
      3 N           3.5222   -1.0595   -0.0332 N.ar    1  UNL1       -0.2244
      4 C           4.7627   -0.4191   -0.0070 C.ar    1  UNL1        0.0917
      5 C           4.6921    0.9753   -0.0030 C.ar    1  UNL1        0.0863
      6 S           3.0419    1.4601   -0.0324 S.2     1  UNL1       -0.0488
      7 C           5.8490    1.7584    0.0175 C.ar    1  UNL1        0.1750
      8 O           5.7878    3.1346    0.0213 O.3     1  UNL1       -0.5025
      9 C           7.1044    1.1390    0.0257 C.ar    1  UNL1        0.1674
     10 O           8.1688    2.0122    0.0347 O.3     1  UNL1       -0.5029
     11 C           7.2404   -0.2628    0.0214 C.ar    1  UNL1        0.0293
     12 C           6.0527   -1.0416    0.0100 C.ar    1  UNL1        0.0124
     13 C           6.1252   -2.4507    0.0078 C.ar    1  UNL1       -0.0518
     14 C           7.3597   -3.0982    0.0135 C.ar    1  UNL1       -0.0611
     15 C           8.5320   -2.3526    0.0214 C.ar    1  UNL1       -0.0611
     16 C           8.4778   -0.9546    0.0261 C.ar    1  UNL1       -0.0504
     17 H           1.0140   -1.4596    0.0991 H       1  UNL1        0.1442
     18 H           0.5691    0.1909    0.1087 H       1  UNL1        0.1442
     19 H           6.7233    3.4211    0.0263 H       1  UNL1        0.2923
     20 H           8.9976    1.5096    0.0173 H       1  UNL1        0.2923
     21 H           5.2135   -3.0462   -0.0006 H       1  UNL1        0.0624
     22 H           7.4038   -4.1839    0.0097 H       1  UNL1        0.0618
     23 H           9.4956   -2.8565    0.0225 H       1  UNL1        0.0618
     24 H           9.4257   -0.4272    0.0333 H       1  UNL1        0.0625
@<TRIPOS>BOND
     1     1    17    1
     2     1    18    1
     3     2     1    1
     4     3     2   ar
     5     4     3   ar
     6     5     4   ar
     7     6     5   ar
     8     6     2   ar
     9     7     5   ar
    10     8     7    1
    11     8    19    1
    12     9     7   ar
    13    10     9    1
    14    10    20    1
    15    11     9   ar
    16    12    11   ar
    17    12     4   ar
    18    13    12   ar
    19    13    21    1
    20    14    13   ar
    21    14    22    1
    22    15    14   ar
    23    15    23    1
    24    16    15   ar
    25    16    11   ar
    26    16    24    1
@<TRIPOS>MOLECULE
mol_485_akc_jbmcl201303055
>469.sdf
 64 68 0 0 0
SMALL
GASTEIGER

@<TRIPOS>ATOM
      1 C           0.4722   -0.4235    0.3516 C.3     1  UNL1       -0.0432
      2 C           1.0833    0.8824   -0.0810 C.2     1  UNL1       -0.0692
      3 C           2.3463    0.9413   -0.5441 C.2     1  UNL1       -0.0844
      4 C           3.0207    2.2001   -1.0041 C.3     1  UNL1       -0.0340
      5 C           2.2254    3.4758   -0.7164 C.3     1  UNL1       -0.0436
      6 C           0.6994    3.2910   -0.8987 C.3     1  UNL1       -0.0247
      7 C           0.3824    2.9670   -2.3795 C.3     1  UNL1       -0.0590
      8 C          -0.0080    4.6261   -0.5763 C.3     1  UNL1       -0.0590
      9 C           0.1953    2.1194    0.0249 C.3     1  UNL1        0.0034
     10 C           0.1176    2.5274    1.4855 C.2     1  UNL1       -0.0747
     11 C          -1.0160    2.5460    2.2025 C.2     1  UNL1       -0.0422
     12 C          -1.0586    3.0032    3.6079 C.2     1  UNL1        0.0614
     13 N          -2.1525    3.0015    4.3028 N.2     1  UNL1       -0.1837
     14 N          -1.8549    3.5270    5.5292 N.pl3   1  UNL1       -0.2165
     15 C          -0.4543    3.9392    5.6530 C.3     1  UNL1        0.0766
     16 C           0.1657    3.4778    4.3374 C.3     1  UNL1        0.0157
     17 C          -0.2679    5.4343    5.8740 C.ar    1  UNL1       -0.0247
     18 C           0.8430    5.8809    6.6086 C.ar    1  UNL1       -0.0547
     19 C           1.0081    7.2356    6.9148 C.ar    1  UNL1       -0.0359
     20 C           0.0607    8.1728    6.4858 C.ar    1  UNL1        0.0671
     21 C          -1.0227    7.7444    5.7038 C.ar    1  UNL1       -0.0359
     22 C          -1.1793    6.3880    5.3963 C.ar    1  UNL1       -0.0547
     23 N           0.1628    9.5378    6.8574 N.ar    1  UNL1       -0.2203
     24 C           1.1339   10.1562    7.6093 C.ar    1  UNL1        0.1199
     25 N           0.8417   11.4230    7.7965 N.ar    1  UNL1       -0.2224
     26 C          -0.3357   11.5566    7.1253 C.ar    1  UNL1        0.1384
     27 N          -0.7811   10.4540    6.5221 N.ar    1  UNL1       -0.1536
     28 C          -2.7407    3.3789    6.5990 C.ar    1  UNL1        0.0522
     29 C          -3.9511    2.6825    6.4397 C.ar    1  UNL1       -0.0389
     30 C          -4.8663    2.5382    7.4881 C.ar    1  UNL1       -0.0600
     31 C          -4.5959    3.1033    8.7285 C.ar    1  UNL1       -0.0616
     32 C          -3.4087    3.8004    8.9188 C.ar    1  UNL1       -0.0600
     33 C          -2.4930    3.9295    7.8672 C.ar    1  UNL1       -0.0389
     34 H           0.3227   -0.4377    1.4358 H       1  UNL1        0.0275
     35 H          -0.4957   -0.5748   -0.1368 H       1  UNL1        0.0275
     36 H           1.1064   -1.2778    0.0911 H       1  UNL1        0.0275
     37 H           2.9407    0.0325   -0.6141 H       1  UNL1        0.0572
     38 H           4.0044    2.2782   -0.5268 H       1  UNL1        0.0308
     39 H           3.2021    2.1169   -2.0825 H       1  UNL1        0.0308
     40 H           2.4387    3.7966    0.3118 H       1  UNL1        0.0274
     41 H           2.5972    4.2827   -1.3608 H       1  UNL1        0.0274
     42 H          -0.6999    2.9056   -2.5417 H       1  UNL1        0.0235
     43 H           0.7718    3.7486   -3.0422 H       1  UNL1        0.0235
     44 H           0.8127    2.0163   -2.7079 H       1  UNL1        0.0235
     45 H           0.2912    5.4083   -1.2841 H       1  UNL1        0.0235
     46 H          -1.0969    4.5211   -0.6391 H       1  UNL1        0.0235
     47 H           0.2409    4.9936    0.4249 H       1  UNL1        0.0235
     48 H          -0.8107    1.8451   -0.3231 H       1  UNL1        0.0393
     49 H           1.0600    2.8242    1.9342 H       1  UNL1        0.0579
     50 H          -1.9693    2.2441    1.7816 H       1  UNL1        0.0633
     51 H           0.0178    3.3919    6.4800 H       1  UNL1        0.0573
     52 H           0.6882    4.2633    3.7847 H       1  UNL1        0.0351
     53 H           0.8347    2.6247    4.4959 H       1  UNL1        0.0351
     54 H           1.5764    5.1667    6.9799 H       1  UNL1        0.0622
     55 H           1.8692    7.5136    7.5150 H       1  UNL1        0.0639
     56 H          -1.7723    8.4500    5.3476 H       1  UNL1        0.0639
     57 H          -2.0468    6.0764    4.8145 H       1  UNL1        0.0622
     58 H           2.0093    9.6538    7.9923 H       1  UNL1        0.1048
     59 H          -0.8855   12.4868    7.0756 H       1  UNL1        0.1066
     60 H          -4.1898    2.2353    5.4772 H       1  UNL1        0.0637
     61 H          -5.7891    1.9891    7.3250 H       1  UNL1        0.0618
     62 H          -5.3098    3.0054    9.5413 H       1  UNL1        0.0618
     63 H          -3.1932    4.2567    9.8812 H       1  UNL1        0.0618
     64 H          -1.5894    4.4970    8.0628 H       1  UNL1        0.0637
@<TRIPOS>BOND
     1     1    34    1
     2     1    35    1
     3     1    36    1
     4     2     1    1
     5     3     2    2
     6     3    37    1
     7     4     3    1
     8     4    38    1
     9     4    39    1
    10     5     4    1
    11     5    40    1
    12     5    41    1
    13     6     5    1
    14     7     6    1
    15     7    42    1
    16     7    43    1
    17     7    44    1
    18     8     6    1
    19     8    45    1
    20     8    46    1
    21     8    47    1
    22     9     6    1
    23     9     2    1
    24     9    48    1
    25    10     9    1
    26    10    49    1
    27    11    10    2
    28    11    50    1
    29    12    11    1
    30    13    12    2
    31    14    13    1
    32    15    14    1
    33    16    15    1
    34    16    12    1
    35    16    52    1
    36    16    53    1
    37    18    17   ar
    38    18    54    1
    39    19    18   ar
    40    19    55    1
    41    20    19   ar
    42    21    20   ar
    43    21    56    1
    44    22    21   ar
    45    22    17   ar
    46    22    57    1
    47    23    20    1
    48    24    23   ar
    49    24    58    1
    50    25    24   ar
    51    26    25   ar
    52    26    59    1
    53    27    26   ar
    54    27    23   ar
    55    28    14    1
    56    29    28   ar
    57    29    60    1
    58    30    29   ar
    59    30    61    1
    60    31    30   ar
    61    31    62    1
    62    32    31   ar
    63    32    63    1
    64    33    32   ar
    65    33    28   ar
    66    33    64    1
    67    15    17    1
    68    15    51    1
@<TRIPOS>MOLECULE
mol_486_akc_jbcp201302024
>470.sdf
 58 62 0 0 0
SMALL
GASTEIGER

@<TRIPOS>ATOM
      1 C           0.9851   -2.2451   -0.0233 C.3     1  UNL1       -0.0618
      2 C           2.4874   -2.3519   -0.2732 C.3     1  UNL1       -0.0121
      3 C           3.2994   -1.0637   -0.0407 C.3     1  UNL1        0.1877
      4 O           2.8837   -0.1381   -1.0696 O.3     1  UNL1       -0.3732
      5 C           3.1259   -0.3744    1.3349 C.2     1  UNL1        0.3441
      6 O           2.4292   -0.8094    2.2447 O.2     1  UNL1       -0.2472
      7 O           3.7946    0.8188    1.4536 O.3     1  UNL1       -0.4575
      8 C           4.8485    1.1589    0.4989 C.3     1  UNL1        0.1230
      9 C           5.5361   -0.0786    0.0218 C.ar    1  UNL1        0.0606
     10 C           4.8128   -1.2085   -0.1510 C.ar    1  UNL1        0.0082
     11 C           5.5016   -2.4867   -0.2431 C.ar    1  UNL1       -0.0290
     12 C           6.8392   -2.5072   -0.1910 C.ar    1  UNL1        0.0713
     13 N           7.5765   -1.3398   -0.1489 N.ar    1  UNL1       -0.3019
     14 C           9.0149   -1.6256   -0.1529 C.3     1  UNL1        0.0545
     15 C           9.0531   -3.1219   -0.1335 C.ar    1  UNL1        0.0090
     16 C          10.0996   -4.0195   -0.0587 C.ar    1  UNL1        0.0123
     17 C          11.4709   -3.4580   -0.0000 C.2     1  UNL1        0.0747
     18 N          12.4386   -4.0846    0.5761 N.2     1  UNL1       -0.0919
     19 O          13.6204   -3.3335    0.4861 O.2     1  UNL1       -0.3881
     20 C          14.7022   -4.0252    1.1438 C.3     1  UNL1        0.1304
     21 C          14.9729   -5.3792    0.4740 C.3     1  UNL1       -0.0229
     22 C          15.9384   -3.1330    0.9781 C.3     1  UNL1       -0.0229
     23 C          14.3988   -4.1970    2.6368 C.3     1  UNL1       -0.0229
     24 C           9.8100   -5.4184   -0.0093 C.ar    1  UNL1        0.0094
     25 C          10.7778   -6.4540   -0.0105 C.ar    1  UNL1       -0.0519
     26 C          10.4196   -7.7989    0.0653 C.ar    1  UNL1       -0.0611
     27 C           9.0801   -8.1429    0.1435 C.ar    1  UNL1       -0.0597
     28 C           8.1103   -7.1412    0.1181 C.ar    1  UNL1       -0.0357
     29 C           8.4375   -5.7953    0.0227 C.ar    1  UNL1        0.0723
     30 N           7.4228   -4.9162   -0.0470 N.ar    1  UNL1       -0.2448
     31 C           7.7654   -3.6295   -0.1432 C.ar    1  UNL1        0.0935
     32 C           7.0248   -0.0852   -0.0795 C.ar    1  UNL1        0.2589
     33 O           7.6741    0.9520   -0.0679 O.2     1  UNL1       -0.2672
     34 H           0.4467   -2.9307   -0.6869 H       1  UNL1        0.0231
     35 H           0.7523   -2.5432    1.0041 H       1  UNL1        0.0231
     36 H           0.5885   -1.2405   -0.1865 H       1  UNL1        0.0231
     37 H           2.8636   -3.1850    0.3272 H       1  UNL1        0.0299
     38 H           2.6103   -2.6315   -1.3306 H       1  UNL1        0.0299
     39 H           1.9998    0.1881   -0.8274 H       1  UNL1        0.2113
     40 H           5.5384    1.8114    1.0430 H       1  UNL1        0.0750
     41 H           4.4143    1.7440   -0.3184 H       1  UNL1        0.0750
     42 H           4.9558   -3.4233   -0.2554 H       1  UNL1        0.0643
     43 H           9.4559   -1.2068   -1.0642 H       1  UNL1        0.0543
     44 H           9.4701   -1.1773    0.7376 H       1  UNL1        0.0543
     45 H          11.6313   -2.4601   -0.4443 H       1  UNL1        0.0869
     46 H          15.1266   -5.2575   -0.6042 H       1  UNL1        0.0269
     47 H          15.8557   -5.8672    0.9000 H       1  UNL1        0.0269
     48 H          14.1272   -6.0636    0.5947 H       1  UNL1        0.0269
     49 H          15.7628   -2.1393    1.4062 H       1  UNL1        0.0269
     50 H          16.8188   -3.5687    1.4619 H       1  UNL1        0.0269
     51 H          16.1681   -2.9781   -0.0827 H       1  UNL1        0.0269
     52 H          14.1600   -3.2317    3.0976 H       1  UNL1        0.0269
     53 H          13.5284   -4.8428    2.7970 H       1  UNL1        0.0269
     54 H          15.2461   -4.6393    3.1702 H       1  UNL1        0.0269
     55 H          11.8376   -6.2304   -0.0868 H       1  UNL1        0.0624
     56 H          11.1887   -8.5671    0.0629 H       1  UNL1        0.0618
     57 H           8.7874   -9.1877    0.2112 H       1  UNL1        0.0618
     58 H           7.0604   -7.4248    0.1694 H       1  UNL1        0.0639
@<TRIPOS>BOND
     1     1    34    1
     2     1    35    1
     3     1    36    1
     4     2     1    1
     5     2    37    1
     6     2    38    1
     7     4    39    1
     8     5     3    1
     9     6     5    2
    10     7     5    1
    11     8     7    1
    12     8    40    1
    13     8    41    1
    14     9     8    1
    15    10     9   ar
    16    10     3    1
    17    11    10   ar
    18    11    42    1
    19    12    11   ar
    20    13    12   ar
    21    14    13    1
    22    14    43    1
    23    14    44    1
    24    15    14    1
    25    16    15   ar
    26    17    16    1
    27    17    45    1
    28    18    17    2
    29    19    18    1
    30    20    19    1
    31    21    20    1
    32    21    46    1
    33    21    47    1
    34    21    48    1
    35    22    20    1
    36    22    49    1
    37    22    50    1
    38    22    51    1
    39    23    20    1
    40    23    52    1
    41    23    53    1
    42    23    54    1
    43    24    16   ar
    44    25    24   ar
    45    25    55    1
    46    26    25   ar
    47    26    56    1
    48    27    26   ar
    49    27    57    1
    50    28    27   ar
    51    28    58    1
    52    29    28   ar
    53    29    24   ar
    54    30    29   ar
    55    31    30   ar
    56    31    12    1
    57    31    15   ar
    58    32    13   ar
    59    32     9   ar
    60    33    32    2
    61     3     4    1
    62     3     2    1
@<TRIPOS>MOLECULE
mol_487_akc_s00044_012_0213_9
>471.sdf
 36 38 0 0 0
SMALL
GASTEIGER

@<TRIPOS>ATOM
      1 C           0.9723    0.8325   -0.0244 C.3     1  UNL1       -0.0046
      2 C           2.4395    0.4989    0.1132 C.ar    1  UNL1        0.1281
      3 N           3.2652    1.4970    0.1954 N.ar    1  UNL1       -0.2322
      4 C           4.6377    1.2301    0.2403 C.ar    1  UNL1        0.0783
      5 C           5.5284    2.3046    0.1688 C.ar    1  UNL1       -0.0355
      6 C           6.9073    2.0829    0.1152 C.ar    1  UNL1       -0.0597
      7 C           7.4097    0.7831    0.1460 C.ar    1  UNL1       -0.0609
      8 C           6.5326   -0.2977    0.2264 C.ar    1  UNL1       -0.0473
      9 C           5.1530   -0.0646    0.2673 C.ar    1  UNL1        0.0664
     10 C           4.1969   -1.1777    0.1885 C.ar    1  UNL1        0.2789
     11 O           4.6010   -2.3303    0.0153 O.2     1  UNL1       -0.2653
     12 N           2.8472   -0.8244    0.1562 N.ar    1  UNL1       -0.2105
     13 N           2.0340   -1.8085   -0.4353 N.am    1  UNL1       -0.2299
     14 C           0.9823   -2.4600    0.1534 C.2     1  UNL1        0.1531
     15 S           0.5110   -2.3482    1.7500 S.2     1  UNL1       -0.0169
     16 N           0.2878   -3.3002   -0.6993 N.am    1  UNL1       -0.2956
     17 C           0.3691   -3.3929   -2.1086 C.ar    1  UNL1        0.0326
     18 C          -0.0366   -4.5875   -2.7113 C.ar    1  UNL1       -0.0405
     19 C           0.1152   -4.7712   -4.0882 C.ar    1  UNL1       -0.0600
     20 C           0.6469   -3.7555   -4.8820 C.ar    1  UNL1       -0.0616
     21 C           0.9895   -2.5393   -4.3051 C.ar    1  UNL1       -0.0600
     22 C           0.8291   -2.3535   -2.9322 C.ar    1  UNL1       -0.0405
     23 H           0.5447    0.9654    0.9734 H       1  UNL1        0.0308
     24 H           0.8630    1.7736   -0.5731 H       1  UNL1        0.0308
     25 H           0.4022    0.0751   -0.5624 H       1  UNL1        0.0308
     26 H           5.1383    3.3174    0.1226 H       1  UNL1        0.0639
     27 H           7.5858    2.9287    0.0302 H       1  UNL1        0.0618
     28 H           8.4817    0.6110    0.0852 H       1  UNL1        0.0618
     29 H           6.9199   -1.3139    0.2185 H       1  UNL1        0.0626
     30 H           2.5666   -2.4044   -1.0698 H       1  UNL1        0.1748
     31 H          -0.3248   -3.9570   -0.2262 H       1  UNL1        0.1539
     32 H          -0.4287   -5.4050   -2.1126 H       1  UNL1        0.0636
     33 H          -0.1683   -5.7170   -4.5433 H       1  UNL1        0.0618
     34 H           0.7850   -3.9070   -5.9490 H       1  UNL1        0.0618
     35 H           1.3794   -1.7302   -4.9175 H       1  UNL1        0.0618
     36 H           1.0500   -1.3656   -2.5392 H       1  UNL1        0.0636
@<TRIPOS>BOND
     1     1    23    1
     2     1    24    1
     3     1    25    1
     4     2     1    1
     5     3     2   ar
     6     4     3   ar
     7     5     4   ar
     8     5    26    1
     9     6     5   ar
    10     6    27    1
    11     7     6   ar
    12     7    28    1
    13     8     7   ar
    14     8    29    1
    15     9     8   ar
    16     9     4   ar
    17    10     9   ar
    18    11    10    2
    19    12    10   ar
    20    12     2   ar
    21    13    12    1
    22    13    30    1
    23    14    13    1
    24    15    14    2
    25    16    14    1
    26    16    31    1
    27    17    16    1
    28    18    17   ar
    29    18    32    1
    30    19    18   ar
    31    19    33    1
    32    20    19   ar
    33    20    34    1
    34    21    20   ar
    35    21    35    1
    36    22    21   ar
    37    22    17   ar
    38    22    36    1
@<TRIPOS>MOLECULE
mol_488_akc_s00044_012_0213_9
>472.sdf
 39 42 0 0 0
SMALL
GASTEIGER

@<TRIPOS>ATOM
      1 C          -1.9132   -2.6565   -1.3388 C.3     1  UNL1       -0.0046
      2 C          -2.2499   -1.2189   -1.0204 C.ar    1  UNL1        0.1281
      3 N          -3.3185   -0.7199   -1.5630 N.ar    1  UNL1       -0.2322
      4 C          -3.6486    0.6131   -1.2773 C.ar    1  UNL1        0.0783
      5 C          -4.8217    1.1450   -1.8195 C.ar    1  UNL1       -0.0355
      6 C          -5.1964    2.4646   -1.5499 C.ar    1  UNL1       -0.0597
      7 C          -4.4015    3.2653   -0.7289 C.ar    1  UNL1       -0.0609
      8 C          -3.2201    2.7523   -0.1941 C.ar    1  UNL1       -0.0473
      9 C          -2.8505    1.4344   -0.4799 C.ar    1  UNL1        0.0664
     10 C          -1.5803    0.8772    0.0165 C.ar    1  UNL1        0.2789
     11 O          -0.7326    1.6122    0.5156 O.2     1  UNL1       -0.2653
     12 N          -1.4076   -0.4873   -0.2076 N.ar    1  UNL1       -0.2097
     13 N          -0.1956   -1.0441    0.2290 N.am    1  UNL1       -0.2168
     14 C           0.0622   -1.1281    1.5929 C.2     1  UNL1        0.2592
     15 O          -0.8005   -1.0509    2.4625 O.2     1  UNL1       -0.2716
     16 C           1.5439   -1.3731    1.8881 C.3     1  UNL1        0.1625
     17 N           2.2469   -1.8719    0.6379 N.pl3   1  UNL1       -0.3263
     18 C           3.3626   -1.0075    0.5060 C.ar    1  UNL1        0.0387
     19 C           4.3350   -1.1211   -0.4717 C.ar    1  UNL1       -0.0401
     20 C           5.3687   -0.1771   -0.5005 C.ar    1  UNL1       -0.0600
     21 C           5.4183    0.8670    0.4400 C.ar    1  UNL1       -0.0610
     22 C           4.4329    0.9834    1.4214 C.ar    1  UNL1       -0.0494
     23 C           3.4232    0.0380    1.4205 C.ar    1  UNL1        0.0406
     24 C           2.3016   -0.1292    2.3261 C.2     1  UNL1        0.1940
     25 O           2.0967    0.5929    3.2864 O.2     1  UNL1       -0.2895
     26 H          -1.6735   -2.7296   -2.4047 H       1  UNL1        0.0308
     27 H          -2.7905   -3.2802   -1.1415 H       1  UNL1        0.0308
     28 H          -1.0749   -3.0527   -0.7651 H       1  UNL1        0.0308
     29 H          -5.4452    0.5241   -2.4584 H       1  UNL1        0.0639
     30 H          -6.1110    2.8654   -1.9801 H       1  UNL1        0.0618
     31 H          -4.6985    4.2882   -0.5114 H       1  UNL1        0.0618
     32 H          -2.5930    3.3743    0.4412 H       1  UNL1        0.0626
     33 H           0.6095   -0.9287   -0.3820 H       1  UNL1        0.1759
     34 H           1.6368   -2.1444    2.6612 H       1  UNL1        0.0679
     35 H           2.5642   -2.8382    0.7339 H       1  UNL1        0.1472
     36 H           4.2983   -1.9159   -1.2102 H       1  UNL1        0.0636
     37 H           6.1420   -0.2500   -1.2632 H       1  UNL1        0.0618
     38 H           6.2317    1.5888    0.3996 H       1  UNL1        0.0618
     39 H           4.4557    1.7789    2.1589 H       1  UNL1        0.0625
@<TRIPOS>BOND
     1     1    26    1
     2     1    27    1
     3     1    28    1
     4     2     1    1
     5     3     2   ar
     6     4     3   ar
     7     5     4   ar
     8     5    29    1
     9     6     5   ar
    10     6    30    1
    11     7     6   ar
    12     7    31    1
    13     8     7   ar
    14     8    32    1
    15     9     8   ar
    16     9     4   ar
    17    10     9   ar
    18    11    10    2
    19    12    10   ar
    20    12     2   ar
    21    13    12    1
    22    13    33    1
    23    14    13   am
    24    15    14    2
    25    16    14    1
    26    16    34    1
    27    17    16    1
    28    17    35    1
    29    18    17    1
    30    19    18   ar
    31    19    36    1
    32    20    19   ar
    33    20    37    1
    34    21    20   ar
    35    21    38    1
    36    22    21   ar
    37    22    39    1
    38    23    22   ar
    39    23    18   ar
    40    24    23    1
    41    24    16    1
    42    25    24    2
@<TRIPOS>MOLECULE
mol_489_akc_s00044_012_0213_9
>473.sdf
 40 43 0 0 0
SMALL
GASTEIGER

@<TRIPOS>ATOM
      1 C           1.0409   -5.2422    1.0429 C.3     1  UNL1       -0.0044
      2 C           2.3579   -5.0687    0.3258 C.ar    1  UNL1        0.1320
      3 N           3.0782   -6.1466    0.2280 N.ar    1  UNL1       -0.2320
      4 C           4.3966   -6.0382   -0.2204 C.ar    1  UNL1        0.0783
      5 C           5.2096   -7.1741   -0.1871 C.ar    1  UNL1       -0.0355
      6 C           6.5769   -7.0800   -0.4594 C.ar    1  UNL1       -0.0597
      7 C           7.1415   -5.8458   -0.7725 C.ar    1  UNL1       -0.0609
      8 C           6.3325   -4.7118   -0.8455 C.ar    1  UNL1       -0.0473
      9 C           4.9601   -4.8177   -0.5770 C.ar    1  UNL1        0.0667
     10 C           4.0822   -3.6345   -0.5993 C.ar    1  UNL1        0.2822
     11 O           4.5481   -2.5611   -0.9789 O.2     1  UNL1       -0.2651
     12 N           2.7607   -3.8303   -0.1532 N.ar    1  UNL1       -0.1797
     13 N           2.1042   -2.6467    0.1099 N.2     1  UNL1       -0.1364
     14 C           0.9164   -2.3397   -0.3181 C.ar    1  UNL1        0.1989
     15 S          -0.1665   -3.3842   -1.2685 S.2     1  UNL1       -0.0542
     16 C          -1.5200   -2.3630   -0.8702 C.ar    1  UNL1        0.0174
     17 C          -1.1572   -1.2017   -0.2861 C.ar    1  UNL1        0.1094
     18 N          -2.0933   -0.2327    0.0222 N.pl3   1  UNL1       -0.3437
     19 N           0.2394   -1.1333   -0.0658 N.ar    1  UNL1       -0.2752
     20 C           0.9593    0.0868    0.1409 C.ar    1  UNL1        0.0502
     21 C           0.4908    1.1037    0.9873 C.ar    1  UNL1       -0.0377
     22 C           1.1688    2.3238    1.1054 C.ar    1  UNL1       -0.0598
     23 C           2.3449    2.5446    0.3962 C.ar    1  UNL1       -0.0616
     24 C           2.8524    1.5411   -0.4245 C.ar    1  UNL1       -0.0598
     25 C           2.1662    0.3290   -0.5482 C.ar    1  UNL1       -0.0377
     26 H           0.3118   -5.6867    0.3591 H       1  UNL1        0.0308
     27 H           1.1771   -5.9506    1.8669 H       1  UNL1        0.0308
     28 H           0.6596   -4.3150    1.4691 H       1  UNL1        0.0308
     29 H           4.7776   -8.1304    0.0904 H       1  UNL1        0.0639
     30 H           7.2022   -7.9679   -0.3995 H       1  UNL1        0.0618
     31 H           8.2113   -5.7641   -0.9496 H       1  UNL1        0.0618
     32 H           6.7727   -3.7443   -1.0790 H       1  UNL1        0.0626
     33 H          -2.5351   -2.6456   -1.1157 H       1  UNL1        0.0728
     34 H          -1.7504    0.6991   -0.1986 H       1  UNL1        0.1437
     35 H          -3.0066   -0.3941   -0.3923 H       1  UNL1        0.1437
     36 H          -0.4035    0.9516    1.5868 H       1  UNL1        0.0638
     37 H           0.7798    3.0991    1.7595 H       1  UNL1        0.0618
     38 H           2.8740    3.4889    0.4869 H       1  UNL1        0.0618
     39 H           3.7765    1.6943   -0.9718 H       1  UNL1        0.0618
     40 H           2.5899   -0.4205   -1.2146 H       1  UNL1        0.0638
@<TRIPOS>BOND
     1     1    26    1
     2     1    27    1
     3     1    28    1
     4     2     1    1
     5     3     2   ar
     6     4     3   ar
     7     5     4   ar
     8     5    29    1
     9     6     5   ar
    10     6    30    1
    11     7     6   ar
    12     7    31    1
    13     8     7   ar
    14     8    32    1
    15     9     8   ar
    16     9     4   ar
    17    10     9   ar
    18    11    10    2
    19    12    10   ar
    20    12     2   ar
    21    13    12    1
    22    14    13    2
    23    15    14   ar
    24    16    15   ar
    25    16    33    1
    26    17    16   ar
    27    18    17    1
    28    18    34    1
    29    18    35    1
    30    19    17   ar
    31    19    14   ar
    32    20    19    1
    33    21    20   ar
    34    21    36    1
    35    22    21   ar
    36    22    37    1
    37    23    22   ar
    38    23    38    1
    39    24    23   ar
    40    24    39    1
    41    25    24   ar
    42    25    20   ar
    43    25    40    1
@<TRIPOS>MOLECULE
mol_48_akc_jbmc201309002
>48.sdf
 33 35 0 0 0
SMALL
GASTEIGER

@<TRIPOS>ATOM
      1 BR          1.4297    0.9602    1.1307 Br      1  UNL1       -0.0487
      2 C           3.0011    0.2509    0.4296 C.ar    1  UNL1        0.0356
      3 C           4.0050   -0.1961    1.2050 C.ar    1  UNL1        0.0273
      4 N           5.1632   -0.7280    0.6215 N.ar    1  UNL1       -0.2784
      5 C           5.3110   -0.8238   -0.7709 C.ar    1  UNL1        0.1538
      6 N           6.4575   -1.3866   -1.0962 N.ar    1  UNL1       -0.2275
      7 C           7.1261   -1.6305    0.0802 C.ar    1  UNL1        0.1125
      8 C           8.4825   -2.2484    0.0118 C.3     1  UNL1        0.1166
      9 S           9.7815   -1.0172    0.0373 S.O2    1  UNL1        0.0026
     10 O           9.7144   -0.2126   -1.1689 O.2     1  UNL1       -0.1690
     11 O           9.7970   -0.3753    1.3398 O.2     1  UNL1       -0.1690
     12 C          11.2629   -2.0008   -0.0870 C.ar    1  UNL1        0.0886
     13 C          11.8065   -2.2672   -1.3481 C.ar    1  UNL1       -0.0369
     14 C          12.9859   -3.0058   -1.4453 C.ar    1  UNL1       -0.0600
     15 C          13.6193   -3.4656   -0.2895 C.ar    1  UNL1       -0.0616
     16 C          13.0780   -3.1864    0.9671 C.ar    1  UNL1       -0.0600
     17 C          11.8983   -2.4480    1.0742 C.ar    1  UNL1       -0.0369
     18 C           6.3281   -1.2601    1.1473 C.ar    1  UNL1        0.2248
     19 N           6.5879   -1.4085    2.5406 N.pl3   1  UNL1        0.0757
     20 O           5.8031   -0.9000    3.3431 O.2     1  UNL1       -0.1246
     21 O           7.5803   -2.0819    2.8442 O.2     1  UNL1       -0.1246
     22 C           4.2433   -0.3352   -1.5892 C.ar    1  UNL1        0.0617
     23 BR          4.4320   -0.4312   -3.4429 Br      1  UNL1       -0.0465
     24 C           3.1394    0.1780   -1.0135 C.ar    1  UNL1       -0.0288
     25 H           3.9340   -0.1536    2.2835 H       1  UNL1        0.0825
     26 H           8.6571   -2.9467    0.8333 H       1  UNL1        0.0570
     27 H           8.5883   -2.8034   -0.9269 H       1  UNL1        0.0570
     28 H          11.3323   -1.8940   -2.2537 H       1  UNL1        0.0636
     29 H          13.4207   -3.2116   -2.4210 H       1  UNL1        0.0618
     30 H          14.5454   -4.0307   -0.3679 H       1  UNL1        0.0618
     31 H          13.5860   -3.5338    1.8641 H       1  UNL1        0.0618
     32 H          11.4960   -2.2177    2.0586 H       1  UNL1        0.0636
     33 H           2.3233    0.5533   -1.6258 H       1  UNL1        0.0641
@<TRIPOS>BOND
     1     2     1    1
     2     3     2   ar
     3     3    25    1
     4     4     3   ar
     5     5     4   ar
     6     6     5   ar
     7     7     6   ar
     8     8     7    1
     9     8    26    1
    10     8    27    1
    11     9     8    1
    12    10     9    2
    13    11     9    2
    14    12     9    1
    15    13    12   ar
    16    13    28    1
    17    14    13   ar
    18    14    29    1
    19    15    14   ar
    20    15    30    1
    21    16    15   ar
    22    16    31    1
    23    17    16   ar
    24    17    12   ar
    25    17    32    1
    26    18     7   ar
    27    18     4   ar
    28    19    18    1
    29    20    19    2
    30    21    19    2
    31    22     5   ar
    32    23    22    1
    33    24    22   ar
    34    24     2   ar
    35    24    33    1
@<TRIPOS>MOLECULE
mol_490_akc_cbdd12112
>474.sdf
 33 35 0 0 0
SMALL
GASTEIGER

@<TRIPOS>ATOM
      1 O           1.9904    0.1829    0.2910 O.3     1  UNL1       -0.5067
      2 C           0.7474    0.0074   -0.2414 C.ar    1  UNL1        0.1175
      3 C           0.0853   -1.2113   -0.1476 C.ar    1  UNL1       -0.0115
      4 C          -1.1918   -1.3388   -0.7068 C.ar    1  UNL1       -0.0020
      5 C          -1.9256   -2.6169   -0.6100 C.2     1  UNL1        0.0528
      6 N          -1.3769   -3.6579   -0.0720 N.2     1  UNL1       -0.1899
      7 N          -2.1393   -4.7814   -0.0150 N.pl3   1  UNL1       -0.2371
      8 C          -1.4620   -6.0323    0.0369 C.ar    1  UNL1        0.0589
      9 C          -2.1776   -7.2555    0.1494 C.ar    1  UNL1        0.0230
     10 C          -3.5907   -7.3560    0.2080 C.ar    1  UNL1       -0.0494
     11 C          -4.2221   -8.5962    0.3104 C.ar    1  UNL1       -0.0426
     12 C          -3.4518   -9.7490    0.3604 C.ar    1  UNL1        0.0430
     13 CL         -4.2169  -11.2845    0.4886 Cl      1  UNL1       -0.0835
     14 C          -2.0638   -9.6691    0.3151 C.ar    1  UNL1       -0.0173
     15 C          -1.4151   -8.4490    0.2168 C.ar    1  UNL1        0.0742
     16 N          -0.0763   -8.4677    0.1992 N.ar    1  UNL1       -0.2548
     17 C           0.5723   -7.2897    0.1399 C.ar    1  UNL1        0.0301
     18 C          -0.0645   -6.0703    0.0753 C.ar    1  UNL1       -0.0204
     19 C          -1.7926   -0.2570   -1.3575 C.ar    1  UNL1       -0.0529
     20 C          -1.1130    0.9600   -1.4437 C.ar    1  UNL1       -0.0577
     21 C           0.1581    1.0917   -0.8826 C.ar    1  UNL1       -0.0201
     22 H           2.2698   -0.6471    0.7127 H       1  UNL1        0.2921
     23 H           0.5440   -2.0568    0.3562 H       1  UNL1        0.0660
     24 H          -2.9508   -2.6429   -1.0205 H       1  UNL1        0.0851
     25 H          -3.0211   -4.8197   -0.5204 H       1  UNL1        0.1744
     26 H          -4.2147   -6.4671    0.1934 H       1  UNL1        0.0625
     27 H          -5.3068   -8.6537    0.3571 H       1  UNL1        0.0632
     28 H          -1.4649  -10.5753    0.3648 H       1  UNL1        0.0653
     29 H           1.6562   -7.3531    0.1443 H       1  UNL1        0.0830
     30 H           0.5251   -5.1616    0.0319 H       1  UNL1        0.0652
     31 H          -2.7814   -0.3473   -1.7988 H       1  UNL1        0.0624
     32 H          -1.5716    1.8082   -1.9461 H       1  UNL1        0.0619
     33 H           0.6892    2.0381   -0.9434 H       1  UNL1        0.0654
@<TRIPOS>BOND
     1     1    22    1
     2     2     1    1
     3     3     2   ar
     4     3    23    1
     5     4     3   ar
     6     5     4    1
     7     5    24    1
     8     6     5    2
     9     7     6    1
    10     7    25    1
    11     8     7    1
    12     9     8   ar
    13    10     9   ar
    14    10    26    1
    15    11    10   ar
    16    11    27    1
    17    12    11   ar
    18    13    12    1
    19    14    12   ar
    20    14    28    1
    21    15    14   ar
    22    15     9   ar
    23    16    15   ar
    24    17    16   ar
    25    17    29    1
    26    18    17   ar
    27    18     8   ar
    28    18    30    1
    29    19     4   ar
    30    19    31    1
    31    20    19   ar
    32    20    32    1
    33    21    20   ar
    34    21     2   ar
    35    21    33    1
@<TRIPOS>MOLECULE
mol_491_akc_jejmech201301001
>475.sdf
 53 55 0 0 0
SMALL
GASTEIGER

@<TRIPOS>ATOM
      1 C          -1.5200    3.5317   -1.0220 C.3     1  UNL1        0.0493
      2 C          -0.6206    3.9624    0.1675 C.3     1  UNL1       -0.0156
      3 N          -1.3479    4.2741    1.4927 N.4     1  UNL1        0.2438
      4 C          -2.4948    5.3059    1.3094 C.3     1  UNL1        0.0094
      5 C          -2.3436    6.6612    2.0775 C.3     1  UNL1        0.0078
      6 N          -2.6684    6.6295    3.5518 N.4     1  UNL1        0.2351
      7 C          -1.6027    6.3982    4.5973 C.3     1  UNL1        0.0099
      8 C          -0.1866    6.2563    4.0860 C.ar    1  UNL1        0.0861
      9 C           0.6822    7.3320    4.0345 C.ar    1  UNL1       -0.0352
     10 C           1.9472    7.1337    3.4852 C.ar    1  UNL1       -0.0580
     11 C           2.3317    5.8666    3.0478 C.ar    1  UNL1       -0.0352
     12 C           1.4224    4.8229    3.1411 C.ar    1  UNL1        0.0861
     13 C           1.7892    3.4346    2.6457 C.3     1  UNL1        0.0099
     14 N           0.7999    2.2870    2.8463 N.4     1  UNL1        0.2351
     15 C          -0.6424    2.4276    3.2570 C.3     1  UNL1        0.0078
     16 C          -1.7109    2.9968    2.2491 C.3     1  UNL1        0.0094
     17 N           0.1445    5.0363    3.5677 N.ar    1  UNL1       -0.2459
     18 N          -1.0728    4.1715   -2.2652 N.pl3   1  UNL1       -0.3376
     19 C          -1.5988    5.4729   -2.4411 C.ar    1  UNL1        0.0456
     20 C          -0.9825    6.5888   -1.8666 C.ar    1  UNL1        0.0484
     21 N          -1.5527    7.8043   -1.7386 N.ar    1  UNL1       -0.2614
     22 C          -2.7280    7.9801   -2.3890 C.ar    1  UNL1        0.0277
     23 C          -3.4003    6.9587   -3.0464 C.ar    1  UNL1       -0.0419
     24 C          -2.8394    5.6820   -3.0357 C.ar    1  UNL1       -0.0379
     25 H          -2.5870    3.6999   -0.8422 H       1  UNL1        0.0514
     26 H          -1.4113    2.4460   -1.1498 H       1  UNL1        0.0514
     27 H           0.0808    3.1505    0.3807 H       1  UNL1        0.0830
     28 H          -0.0163    4.8489   -0.0387 H       1  UNL1        0.0830
     29 H          -0.6592    4.7578    2.0892 H       1  UNL1        0.2038
     30 H          -2.5220    5.5654    0.2529 H       1  UNL1        0.0868
     31 H          -3.4388    4.8061    1.5548 H       1  UNL1        0.0868
     32 H          -3.0828    7.3520    1.6547 H       1  UNL1        0.0867
     33 H          -1.3625    7.1183    1.9317 H       1  UNL1        0.0867
     34 H          -3.5066    6.0704    3.7679 H       1  UNL1        0.2019
     35 H          -3.0046    7.5896    3.7639 H       1  UNL1        0.2019
     36 H          -1.8859    5.4673    5.0995 H       1  UNL1        0.0882
     37 H          -1.6848    7.2076    5.3349 H       1  UNL1        0.0882
     38 H           0.4116    8.3185    4.4072 H       1  UNL1        0.0637
     39 H           2.6458    7.9695    3.4138 H       1  UNL1        0.0619
     40 H           3.3343    5.7280    2.6438 H       1  UNL1        0.0637
     41 H           2.7207    3.1061    3.1205 H       1  UNL1        0.0882
     42 H           1.9609    3.4826    1.5661 H       1  UNL1        0.0882
     43 H           1.2217    1.7733    3.6417 H       1  UNL1        0.2019
     44 H           0.9177    1.6022    2.0824 H       1  UNL1        0.2019
     45 H          -0.6662    2.9585    4.2129 H       1  UNL1        0.0867
     46 H          -0.9587    1.4033    3.4949 H       1  UNL1        0.0867
     47 H          -1.9828    2.2439    1.5030 H       1  UNL1        0.0868
     48 H          -2.6082    3.2272    2.8334 H       1  UNL1        0.0868
     49 H          -1.3547    3.6145   -3.0844 H       1  UNL1        0.1463
     50 H           0.0217    6.5279   -1.4724 H       1  UNL1        0.0848
     51 H          -3.1237    8.9910   -2.3803 H       1  UNL1        0.0829
     52 H          -4.3342    7.1570   -3.5605 H       1  UNL1        0.0633
     53 H          -3.3753    4.8683   -3.5286 H       1  UNL1        0.0637
@<TRIPOS>UNITY_ATOM_ATTR
3 1
charge 1
6 1
charge 1
14 1
charge 1
@<TRIPOS>BOND
     1     1    25    1
     2     1    26    1
     3     2     1    1
     4     2    27    1
     5     2    28    1
     6     3     2    1
     7     3    29    1
     8     4     3    1
     9     4    30    1
    10     4    31    1
    11     5     4    1
    12     5    32    1
    13     5    33    1
    14     6     5    1
    15     6    34    1
    16     6    35    1
    17     7     6    1
    18     7    36    1
    19     7    37    1
    20     8     7    1
    21     9     8   ar
    22     9    38    1
    23    10     9   ar
    24    10    39    1
    25    11    10   ar
    26    11    40    1
    27    12    11   ar
    28    13    12    1
    29    13    41    1
    30    13    42    1
    31    14    13    1
    32    14    43    1
    33    14    44    1
    34    15    14    1
    35    15    45    1
    36    15    46    1
    37    16    15    1
    38    16     3    1
    39    16    47    1
    40    16    48    1
    41    17    12   ar
    42    17     8   ar
    43    18     1    1
    44    18    49    1
    45    19    18    1
    46    20    19   ar
    47    20    50    1
    48    21    20   ar
    49    22    21   ar
    50    22    51    1
    51    23    22   ar
    52    23    52    1
    53    24    23   ar
    54    24    19   ar
    55    24    53    1
@<TRIPOS>MOLECULE
mol_492_akc_jejmech201302024
>476.sdf
 45 49 0 0 0
SMALL
GASTEIGER

@<TRIPOS>ATOM
      1 I           6.0745    0.4860   -4.4069 I       1  UNL1       -0.0438
      2 C           4.9305    0.5756   -2.6673 C.ar    1  UNL1        0.0141
      3 C           4.6036    1.8221   -2.1395 C.ar    1  UNL1       -0.0466
      4 C           3.8533    1.9158   -0.9679 C.ar    1  UNL1       -0.0368
      5 C           3.4683    0.7236   -0.3448 C.ar    1  UNL1        0.0468
      6 N           2.7690    0.5458    0.8199 N.ar    1  UNL1       -0.3603
      7 C           2.6920   -0.7806    1.1232 C.ar    1  UNL1        0.0068
      8 C           3.2651   -1.5201    0.0968 C.ar    1  UNL1       -0.0106
      9 C           3.4446   -3.0293    0.0476 C.3     1  UNL1        0.0382
     10 C           4.1116   -3.5922    1.2937 C.ar    1  UNL1       -0.0106
     11 C           3.6359   -4.5017    2.2271 C.ar    1  UNL1        0.0068
     12 N           4.5614   -4.6501    3.2226 N.ar    1  UNL1       -0.3603
     13 C           5.6723   -3.8916    2.9556 C.ar    1  UNL1        0.0468
     14 C           6.8472   -3.7336    3.6999 C.ar    1  UNL1       -0.0368
     15 C           7.8359   -2.8932    3.1825 C.ar    1  UNL1       -0.0466
     16 C           7.6481   -2.2484    1.9626 C.ar    1  UNL1        0.0141
     17 I           9.1456   -1.0073    1.2180 I       1  UNL1       -0.0438
     18 C           6.4656   -2.4120    1.2303 C.ar    1  UNL1       -0.0392
     19 C           5.4435   -3.2439    1.7410 C.ar    1  UNL1        0.0047
     20 C           2.0596   -3.6649   -0.1442 C.ar    1  UNL1       -0.0354
     21 C           1.8199   -4.4764   -1.2718 C.ar    1  UNL1       -0.0555
     22 C           0.5661   -5.0657   -1.4933 C.ar    1  UNL1       -0.0312
     23 C          -0.4729   -4.8510   -0.5820 C.ar    1  UNL1        0.1262
     24 C          -0.2591   -4.0780    0.5598 C.ar    1  UNL1       -0.0312
     25 C           0.9951   -3.4984    0.7684 C.ar    1  UNL1       -0.0555
     26 N          -1.7992   -5.4357   -0.8157 N.pl3   1  UNL1        0.0564
     27 O          -1.9578   -6.1036   -1.8507 O.2     1  UNL1       -0.1261
     28 O          -2.6820   -5.2301    0.0270 O.2     1  UNL1       -0.1261
     29 C           3.7799   -0.5451   -0.8411 C.ar    1  UNL1        0.0047
     30 C           4.5228   -0.6144   -2.0430 C.ar    1  UNL1       -0.0392
     31 H           4.9318    2.7394   -2.6226 H       1  UNL1        0.0629
     32 H           3.6005    2.8834   -0.5448 H       1  UNL1        0.0639
     33 H           2.4222    1.2967    1.4012 H       1  UNL1        0.1653
     34 H           2.2467   -1.0898    2.0571 H       1  UNL1        0.0810
     35 H           4.0790   -3.2890   -0.8109 H       1  UNL1        0.0447
     36 H           2.7015   -5.0425    2.2884 H       1  UNL1        0.0810
     37 H           4.4470   -5.2314    4.0413 H       1  UNL1        0.1653
     38 H           6.9891   -4.2385    4.6501 H       1  UNL1        0.0639
     39 H           8.7526   -2.7527    3.7504 H       1  UNL1        0.0629
     40 H           6.3270   -1.8980    0.2848 H       1  UNL1        0.0634
     41 H           2.6146   -4.6604   -1.9934 H       1  UNL1        0.0621
     42 H           0.4189   -5.6829   -2.3774 H       1  UNL1        0.0640
     43 H          -1.0449   -3.9148    1.2937 H       1  UNL1        0.0640
     44 H           1.1374   -2.9262    1.6809 H       1  UNL1        0.0621
     45 H           4.7958   -1.5772   -2.4626 H       1  UNL1        0.0634
@<TRIPOS>BOND
     1     2     1    1
     2     3     2   ar
     3     3    31    1
     4     4     3   ar
     5     4    32    1
     6     5     4   ar
     7     6     5   ar
     8     6    33    1
     9     7     6   ar
    10     7    34    1
    11     8     7   ar
    12     9     8    1
    13     9    35    1
    14    10     9    1
    15    11    10   ar
    16    11    36    1
    17    12    11   ar
    18    12    37    1
    19    13    12   ar
    20    14    13   ar
    21    14    38    1
    22    15    14   ar
    23    15    39    1
    24    16    15   ar
    25    17    16    1
    26    18    16   ar
    27    18    40    1
    28    19    18   ar
    29    19    10   ar
    30    19    13   ar
    31    20     9    1
    32    21    20   ar
    33    21    41    1
    34    22    21   ar
    35    22    42    1
    36    23    22   ar
    37    24    23   ar
    38    24    43    1
    39    25    24   ar
    40    25    20   ar
    41    25    44    1
    42    26    23    1
    43    27    26    2
    44    28    26    2
    45    29     8   ar
    46    29     5   ar
    47    30    29   ar
    48    30     2   ar
    49    30    45    1
@<TRIPOS>MOLECULE
mol_493_akc_s_0032_1328258
>477.sdf
 26 28 0 0 0
SMALL
GASTEIGER

@<TRIPOS>ATOM
      1 C           1.2202   -2.4997    0.0964 C.3     1  UNL1       -0.0334
      2 C           0.3147   -1.3288   -0.0678 C.ar    1  UNL1       -0.0127
      3 C           0.5877   -0.1051   -0.6397 C.ar    1  UNL1       -0.0512
      4 C          -0.5519    0.7525   -0.6440 C.ar    1  UNL1       -0.0462
      5 C          -1.6660    0.1646   -0.0730 C.ar    1  UNL1        0.0262
      6 S          -1.2986   -1.4156    0.4895 S.2     1  UNL1       -0.0930
      7 C          -2.9917    0.7203    0.0595 C.ar    1  UNL1        0.0265
      8 C          -3.9037    0.5040    1.0747 C.ar    1  UNL1       -0.0458
      9 C          -5.1301    1.2036    0.8700 C.ar    1  UNL1       -0.0458
     10 C          -5.1369    1.9355   -0.3024 C.ar    1  UNL1        0.0265
     11 S          -3.6432    1.7717   -1.1286 S.2     1  UNL1       -0.0872
     12 C          -6.2015    2.7598   -0.8252 C.ar    1  UNL1        0.0259
     13 C          -6.5184    2.9980   -2.1509 C.ar    1  UNL1       -0.0464
     14 C          -7.6238    3.8861   -2.3045 C.ar    1  UNL1       -0.0541
     15 C          -8.1213    4.3007   -1.0919 C.ar    1  UNL1       -0.0237
     16 S          -7.2712    3.6092    0.2191 S.2     1  UNL1       -0.0961
     17 H           1.3225   -2.7705    1.1522 H       1  UNL1        0.0283
     18 H           0.8332   -3.3656   -0.4513 H       1  UNL1        0.0283
     19 H           2.2197   -2.2784   -0.2922 H       1  UNL1        0.0283
     20 H           1.5542    0.1637   -1.0484 H       1  UNL1        0.0626
     21 H          -0.5471    1.7555   -1.0540 H       1  UNL1        0.0629
     22 H          -3.7070   -0.1247    1.9349 H       1  UNL1        0.0629
     23 H          -5.9693    1.1556    1.5533 H       1  UNL1        0.0629
     24 H          -5.9856    2.5534   -2.9836 H       1  UNL1        0.0629
     25 H          -8.0294    4.2046   -3.2572 H       1  UNL1        0.0623
     26 H          -8.9465    4.9752   -0.9081 H       1  UNL1        0.0693
@<TRIPOS>BOND
     1     1    17    1
     2     1    18    1
     3     1    19    1
     4     2     1    1
     5     3     2   ar
     6     3    20    1
     7     4     3   ar
     8     4    21    1
     9     5     4   ar
    10     6     5   ar
    11     6     2   ar
    12     7     5    1
    13     8     7   ar
    14     8    22    1
    15     9     8   ar
    16     9    23    1
    17    10     9   ar
    18    11    10   ar
    19    11     7   ar
    20    12    10    1
    21    13    12   ar
    22    13    24    1
    23    14    13   ar
    24    14    25    1
    25    15    14   ar
    26    15    26    1
    27    16    15   ar
    28    16    12   ar
@<TRIPOS>MOLECULE
mol_494_akc_s_0032_1328258
>478.sdf
 33 34 0 0 0
SMALL
GASTEIGER

@<TRIPOS>ATOM
      1 C           5.0837   -2.3766   -1.4941 C.3     1  UNL1        0.0332
      2 C           4.6100   -1.1765   -0.7302 C.2     1  UNL1        0.3040
      3 O           3.9707   -1.2395    0.3092 O.2     1  UNL1       -0.2512
      4 O           4.9844   -0.0258   -1.3523 O.3     1  UNL1       -0.4639
      5 C           4.6392    1.1695   -0.6358 C.3     1  UNL1        0.1032
      6 C           5.1891    2.3867   -1.3737 C.3     1  UNL1        0.0438
      7 C           6.7091    2.3867   -1.3737 C.1     1  UNL1       -0.0931
      8 C           8.0129    2.3867   -1.3737 C.1     1  UNL1       -0.0590
      9 C           9.4278    2.4042   -1.4484 C.ar    1  UNL1        0.0625
     10 C          10.2795    2.8756   -0.4784 C.ar    1  UNL1       -0.0386
     11 C          11.6469    2.7177   -0.8569 C.ar    1  UNL1       -0.0452
     12 C          11.7843    2.1317   -2.1031 C.ar    1  UNL1        0.0271
     13 S          10.2560    1.8306   -2.8165 S.2     1  UNL1       -0.0794
     14 C          12.9857    1.7308   -2.7846 C.ar    1  UNL1        0.0262
     15 C          13.2207    1.7343   -4.1456 C.ar    1  UNL1       -0.0462
     16 C          14.4623    1.1260   -4.4855 C.ar    1  UNL1       -0.0512
     17 C          15.1469    0.6905   -3.3713 C.ar    1  UNL1       -0.0127
     18 C          16.4413   -0.0421   -3.3205 C.3     1  UNL1       -0.0334
     19 S          14.3188    1.0808   -1.9291 S.2     1  UNL1       -0.0930
     20 H           5.6877   -3.0050   -0.8347 H       1  UNL1        0.0342
     21 H           4.2209   -2.9323   -1.8683 H       1  UNL1        0.0342
     22 H           5.7050   -2.0794   -2.3442 H       1  UNL1        0.0342
     23 H           3.5457    1.2453   -0.5863 H       1  UNL1        0.0707
     24 H           5.0473    1.1235    0.3813 H       1  UNL1        0.0707
     25 H           4.8481    2.3846   -2.4151 H       1  UNL1        0.0431
     26 H           4.8359    3.3061   -0.8950 H       1  UNL1        0.0431
     27 H           9.9480    3.2966    0.4625 H       1  UNL1        0.0635
     28 H          12.4851    3.0052   -0.2311 H       1  UNL1        0.0629
     29 H          12.5165    2.1171   -4.8759 H       1  UNL1        0.0629
     30 H          14.8164    0.9900   -5.5000 H       1  UNL1        0.0626
     31 H          16.3757   -0.9557   -3.9209 H       1  UNL1        0.0283
     32 H          17.2439    0.5813   -3.7256 H       1  UNL1        0.0283
     33 H          16.7154   -0.3328   -2.3013 H       1  UNL1        0.0283
@<TRIPOS>BOND
     1     1    20    1
     2     1    21    1
     3     1    22    1
     4     2     1    1
     5     3     2    2
     6     4     2    1
     7     5     4    1
     8     5    23    1
     9     5    24    1
    10     6     5    1
    11     6    25    1
    12     6    26    1
    13     7     6    1
    14     8     7    3
    15     9     8    1
    16    10     9   ar
    17    10    27    1
    18    11    10   ar
    19    11    28    1
    20    12    11   ar
    21    13    12   ar
    22    13     9   ar
    23    14    12    1
    24    15    14   ar
    25    15    29    1
    26    16    15   ar
    27    16    30    1
    28    17    16   ar
    29    18    17    1
    30    18    31    1
    31    18    32    1
    32    18    33    1
    33    19    17   ar
    34    19    14   ar
@<TRIPOS>MOLECULE
mol_495_akc_s0074_02762013000100010
>479.sdf
 56 57 0 0 0
SMALL
GASTEIGER

@<TRIPOS>ATOM
      1 C           6.5011    0.7721    4.3050 C.3     1  UNL1       -0.0619
      2 C           6.7709   -0.2666    3.2006 C.3     1  UNL1       -0.0338
      3 C           5.4598   -0.7960    2.5397 C.3     1  UNL1       -0.0494
      4 C           4.5445   -1.4043    3.6059 C.3     1  UNL1       -0.0458
      5 C           3.1341   -2.0005    3.3093 C.3     1  UNL1       -0.0145
      6 C           3.1755   -3.1310    2.2810 C.2     1  UNL1       -0.0730
      7 C           3.4994   -2.9021    0.9932 C.2     1  UNL1       -0.0992
      8 C           2.7380   -4.5268    2.6422 C.3     1  UNL1       -0.0314
      9 C           2.5460   -4.7709    4.1329 C.3     1  UNL1       -0.0450
     10 C           1.6115   -3.6983    4.7064 C.3     1  UNL1       -0.0193
     11 C           2.3578   -2.3144    4.7136 C.3     1  UNL1       -0.0217
     12 C           3.3291   -2.1867    5.9252 C.3     1  UNL1       -0.0587
     13 C           1.2340   -1.2661    4.9160 C.3     1  UNL1       -0.0468
     14 C           0.4999   -1.4440    6.2451 C.3     1  UNL1       -0.0515
     15 C           0.0615   -2.8767    6.5841 C.3     1  UNL1       -0.0372
     16 C           0.8943   -4.0928    6.0532 C.3     1  UNL1        0.0681
     17 C           1.8730   -4.6604    7.1237 C.3     1  UNL1       -0.0491
     18 C          -0.1768   -5.2206    5.9451 C.2     1  UNL1        0.3110
     19 O          -0.4845   -5.6871    4.7269 O.3     1  UNL1       -0.4802
     20 O          -0.7680   -5.6620    6.9239 O.2     1  UNL1       -0.2504
     21 C           7.7201    0.3219    2.1433 C.3     1  UNL1        0.0473
     22 C           9.1100    0.5669    2.6972 C.2     1  UNL1        0.3049
     23 O           9.7603    1.5699    2.0662 O.3     1  UNL1       -0.4806
     24 O           9.6299   -0.0766    3.5988 O.2     1  UNL1       -0.2510
     25 H           6.0389    0.3085    5.1829 H       1  UNL1        0.0233
     26 H           7.4244    1.2376    4.6634 H       1  UNL1        0.0233
     27 H           5.8395    1.5673    3.9465 H       1  UNL1        0.0233
     28 H           7.2697   -1.1240    3.6739 H       1  UNL1        0.0303
     29 H           4.9425    0.0202    2.0221 H       1  UNL1        0.0268
     30 H           5.7362   -1.5482    1.7948 H       1  UNL1        0.0268
     31 H           5.1385   -2.1624    4.1302 H       1  UNL1        0.0271
     32 H           4.3476   -0.5656    4.2748 H       1  UNL1        0.0271
     33 H           2.5651   -1.1943    2.8208 H       1  UNL1        0.0351
     34 H           3.7672   -1.9163    0.6283 H       1  UNL1        0.0534
     35 H           3.5030   -3.7015    0.2562 H       1  UNL1        0.0534
     36 H           3.4481   -5.2636    2.2479 H       1  UNL1        0.0310
     37 H           1.7782   -4.7179    2.1390 H       1  UNL1        0.0310
     38 H           3.5187   -4.7686    4.6353 H       1  UNL1        0.0271
     39 H           2.1266   -5.7745    4.2631 H       1  UNL1        0.0271
     40 H           0.7971   -3.5734    3.9763 H       1  UNL1        0.0317
     41 H           3.7992   -1.2023    5.9908 H       1  UNL1        0.0235
     42 H           2.8305   -2.2413    6.8871 H       1  UNL1        0.0235
     43 H           4.1090   -2.9527    5.9081 H       1  UNL1        0.0235
     44 H           0.5058   -1.3366    4.0961 H       1  UNL1        0.0271
     45 H           1.6462   -0.2504    4.8679 H       1  UNL1        0.0271
     46 H          -0.3874   -0.7974    6.2422 H       1  UNL1        0.0266
     47 H           1.1192   -1.0523    7.0603 H       1  UNL1        0.0266
     48 H          -0.0454   -2.9518    7.6752 H       1  UNL1        0.0276
     49 H          -0.9634   -2.9661    6.1959 H       1  UNL1        0.0276
     50 H           1.3471   -5.1645    7.9429 H       1  UNL1        0.0240
     51 H           2.5442   -5.4108    6.6927 H       1  UNL1        0.0240
     52 H           2.4887   -3.9183    7.6250 H       1  UNL1        0.0240
     53 H           7.8311   -0.3659    1.2992 H       1  UNL1        0.0380
     54 H           7.3013    1.2630    1.7706 H       1  UNL1        0.0380
     55 H          -0.0317   -5.2974    3.9627 H       1  UNL1        0.2951
     56 H           9.2466    1.9934    1.3556 H       1  UNL1        0.2951
@<TRIPOS>BOND
     1     1    25    1
     2     1    26    1
     3     1    27    1
     4     2     1    1
     5     2    28    1
     6     3     2    1
     7     3    29    1
     8     3    30    1
     9     4     3    1
    10     4    31    1
    11     4    32    1
    12     6     5    1
    13     7     6    2
    14     7    34    1
    15     7    35    1
    16     8     6    1
    17     8    36    1
    18     8    37    1
    19     9     8    1
    20     9    38    1
    21     9    39    1
    22    10     9    1
    23    10    40    1
    24    11    10    1
    25    11     5    1
    26    11    12    1
    27    12    41    1
    28    12    42    1
    29    12    43    1
    30    13    11    1
    31    13    44    1
    32    13    45    1
    33    14    13    1
    34    14    46    1
    35    14    47    1
    36    15    14    1
    37    15    48    1
    38    15    49    1
    39    16    15    1
    40    16    10    1
    41    16    17    1
    42    17    50    1
    43    17    51    1
    44    17    52    1
    45    18    16    1
    46    19    18    1
    47    20    18    2
    48    21     2    1
    49    21    53    1
    50    21    54    1
    51    22    21    1
    52    23    22    1
    53    24    22    2
    54     5    33    1
    55     5     4    1
    56    19    55    1
    57    23    56    1
@<TRIPOS>MOLECULE
mol_496_akc_s0074_02762013000100010
>480.sdf
 52 55 0 0 0
SMALL
GASTEIGER

@<TRIPOS>ATOM
      1 C           0.4731   -2.2225    0.9535 C.3     1  UNL1       -0.0590
      2 C           0.6725   -0.6888    0.7573 C.3     1  UNL1       -0.0249
      3 C           1.4248   -0.2150    2.0511 C.3     1  UNL1       -0.0470
      4 C           2.8460    0.2682    1.8497 C.3     1  UNL1       -0.0515
      5 C           2.8959    1.2566    0.7040 C.3     1  UNL1       -0.0372
      6 C           2.6569    0.5826   -0.6554 C.3     1  UNL1        0.0681
      7 C           2.4763    1.7312   -1.6752 C.3     1  UNL1       -0.0491
      8 C           1.5125   -0.5125   -0.5857 C.3     1  UNL1       -0.0198
      9 C           0.6160   -0.5605   -1.8424 C.3     1  UNL1       -0.0482
     10 C          -0.5372    0.4284   -1.7980 C.3     1  UNL1       -0.0465
     11 C          -1.4823    0.1249   -0.6434 C.3     1  UNL1       -0.0217
     12 C          -2.2887   -1.1604   -0.9071 C.3     1  UNL1       -0.0403
     13 C          -3.4062   -1.0433    0.1153 C.3     1  UNL1       -0.0196
     14 C          -2.8111   -1.2664    1.5126 C.3     1  UNL1       -0.0462
     15 C          -1.6893   -0.2817    1.8829 C.3     1  UNL1       -0.0487
     16 C          -0.7172    0.0810    0.7165 C.3     1  UNL1       -0.0294
     17 C          -3.8270    0.3784   -0.1671 C.2     1  UNL1       -0.0730
     18 C          -5.0887    0.8010   -0.3144 C.2     1  UNL1       -0.0992
     19 C          -2.6169    1.1929   -0.5578 C.3     1  UNL1       -0.0258
     20 C           3.9150   -0.1442   -1.1748 C.2     1  UNL1        0.3110
     21 O           4.9917   -0.0970   -0.3688 O.3     1  UNL1       -0.4802
     22 O           3.9973   -0.7463   -2.2415 O.2     1  UNL1       -0.2504
     23 H           1.4445   -2.7197    1.0757 H       1  UNL1        0.0235
     24 H          -0.0123   -2.7008    0.1030 H       1  UNL1        0.0235
     25 H          -0.1023   -2.4600    1.8528 H       1  UNL1        0.0235
     26 H           0.8774    0.6105    2.5261 H       1  UNL1        0.0271
     27 H           1.4376   -1.0024    2.8163 H       1  UNL1        0.0271
     28 H           3.1824    0.7660    2.7680 H       1  UNL1        0.0266
     29 H           3.5167   -0.5798    1.6869 H       1  UNL1        0.0266
     30 H           2.1340    2.0315    0.8731 H       1  UNL1        0.0276
     31 H           3.8596    1.7829    0.7185 H       1  UNL1        0.0276
     32 H           1.6441    2.3866   -1.4148 H       1  UNL1        0.0240
     33 H           3.3759    2.3605   -1.7056 H       1  UNL1        0.0240
     34 H           2.3373    1.3734   -2.7030 H       1  UNL1        0.0240
     35 H           2.0708   -1.4589   -0.6561 H       1  UNL1        0.0317
     36 H           0.2118   -1.5739   -1.9537 H       1  UNL1        0.0269
     37 H           1.2036   -0.4085   -2.7532 H       1  UNL1        0.0269
     38 H          -0.1800    1.4566   -1.7078 H       1  UNL1        0.0271
     39 H          -1.0796    0.3867   -2.7508 H       1  UNL1        0.0271
     40 H          -1.7249   -2.0847   -0.7966 H       1  UNL1        0.0276
     41 H          -2.7000   -1.1629   -1.9268 H       1  UNL1        0.0276
     42 H          -4.2031   -1.7669   -0.0846 H       1  UNL1        0.0346
     43 H          -2.4117   -2.2884    1.5563 H       1  UNL1        0.0271
     44 H          -3.5993   -1.2172    2.2727 H       1  UNL1        0.0271
     45 H          -1.1542   -0.6515    2.7639 H       1  UNL1        0.0268
     46 H          -2.1685    0.6469    2.2226 H       1  UNL1        0.0268
     47 H          -0.4275    1.1291    0.8979 H       1  UNL1        0.0312
     48 H          -5.3038    1.8130   -0.6447 H       1  UNL1        0.0534
     49 H          -5.9316    0.1362   -0.1571 H       1  UNL1        0.0534
     50 H          -2.4051    1.9652    0.1913 H       1  UNL1        0.0315
     51 H          -2.7833    1.6873   -1.5209 H       1  UNL1        0.0315
     52 H           5.6678   -0.6130   -0.8489 H       1  UNL1        0.2951
@<TRIPOS>BOND
     1     1    23    1
     2     1    24    1
     3     1    25    1
     4     2     1    1
     5     3     2    1
     6     3    26    1
     7     3    27    1
     8     4     3    1
     9     4    28    1
    10     4    29    1
    11     5     4    1
    12     5    30    1
    13     5    31    1
    14     6     5    1
    15     6     7    1
    16     7    32    1
    17     7    33    1
    18     7    34    1
    19     8     6    1
    20     8     2    1
    21     8    35    1
    22     9     8    1
    23     9    36    1
    24     9    37    1
    25    10     9    1
    26    10    38    1
    27    10    39    1
    28    11    10    1
    29    12    11    1
    30    12    40    1
    31    12    41    1
    32    13    12    1
    33    13    42    1
    34    14    13    1
    35    14    43    1
    36    14    44    1
    37    15    14    1
    38    15    45    1
    39    15    46    1
    40    16    15    1
    41    16     2    1
    42    16    11    1
    43    16    47    1
    44    17    13    1
    45    18    17    2
    46    18    48    1
    47    18    49    1
    48    19    17    1
    49    19    11    1
    50    19    50    1
    51    19    51    1
    52    20     6    1
    53    21    20    1
    54    22    20    2
    55    21    52    1
@<TRIPOS>MOLECULE
mol_497_akc_journalpone0051864
>481.sdf
 70 72 0 0 0
SMALL
GASTEIGER

@<TRIPOS>ATOM
      1 C           1.3167    2.6400    1.6454 C.3     1  UNL1       -0.0494
      2 C           2.3022    2.2038    0.5729 C.3     1  UNL1        0.0093
      3 N           2.9829    0.9607    0.9486 N.pl3   1  UNL1       -0.3304
      4 C           2.2498   -0.2954    0.7672 C.3     1  UNL1        0.0093
      5 C           1.9710   -0.9547    2.1120 C.3     1  UNL1       -0.0494
      6 C           4.3257    0.9735    1.3117 C.ar    1  UNL1        0.0297
      7 C           4.8777    2.0345    2.0461 C.ar    1  UNL1       -0.0401
      8 C           6.2336    2.0624    2.4127 C.ar    1  UNL1       -0.0523
      9 C           7.0872    1.0223    2.0429 C.ar    1  UNL1       -0.0172
     10 C           6.5611   -0.0479    1.3205 C.ar    1  UNL1       -0.0523
     11 C           5.2014   -0.0697    0.9718 C.ar    1  UNL1       -0.0401
     12 C           8.5413    1.0973    2.3201 C.2     1  UNL1       -0.0115
     13 C           9.0680    0.6690    3.5002 C.2     1  UNL1       -0.0613
     14 C          10.5487    0.7786    3.8528 C.3     1  UNL1       -0.0306
     15 C          11.1298   -0.5401    4.3672 C.3     1  UNL1       -0.0467
     16 C          10.3319   -1.1275    5.5394 C.3     1  UNL1       -0.0433
     17 C          10.5284   -0.3129    6.8218 C.3     1  UNL1       -0.0624
     18 C           8.8530   -1.2470    5.1499 C.3     1  UNL1       -0.0467
     19 C           8.2486    0.0644    4.6293 C.3     1  UNL1       -0.0306
     20 C           9.4415    1.6700    1.2910 C.ar    1  UNL1       -0.0172
     21 C          10.0233    0.8417    0.3321 C.ar    1  UNL1       -0.0523
     22 C          10.9231    1.3686   -0.6014 C.ar    1  UNL1       -0.0401
     23 C          11.2603    2.7312   -0.6206 C.ar    1  UNL1        0.0297
     24 C          10.6264    3.5512    0.3263 C.ar    1  UNL1       -0.0401
     25 C           9.7347    3.0337    1.2760 C.ar    1  UNL1       -0.0523
     26 N          12.1989    3.2416   -1.5078 N.pl3   1  UNL1       -0.3304
     27 C          11.9939    4.5528   -2.1263 C.3     1  UNL1        0.0093
     28 C          12.9333    5.5944   -1.5385 C.3     1  UNL1       -0.0494
     29 C          13.3242    2.4281   -1.9766 C.3     1  UNL1        0.0093
     30 C          14.2943    2.1277   -0.8405 C.3     1  UNL1       -0.0494
     31 H           0.8174    3.5664    1.3448 H       1  UNL1        0.0245
     32 H           0.5442    1.8818    1.8079 H       1  UNL1        0.0245
     33 H           1.8182    2.8170    2.6019 H       1  UNL1        0.0245
     34 H           1.7611    2.0492   -0.3685 H       1  UNL1        0.0461
     35 H           3.0125    3.0141    0.3671 H       1  UNL1        0.0461
     36 H           1.2871   -0.1050    0.2768 H       1  UNL1        0.0461
     37 H           2.7781   -0.9846    0.1012 H       1  UNL1        0.0461
     38 H           2.8937   -1.1573    2.6646 H       1  UNL1        0.0245
     39 H           1.3432   -0.3123    2.7382 H       1  UNL1        0.0245
     40 H           1.4466   -1.9039    1.9674 H       1  UNL1        0.0245
     41 H           4.2527    2.8618    2.3691 H       1  UNL1        0.0636
     42 H           6.6152    2.9109    2.9749 H       1  UNL1        0.0624
     43 H           7.2035   -0.8632    1.0021 H       1  UNL1        0.0624
     44 H           4.8596   -0.9129    0.3806 H       1  UNL1        0.0636
     45 H          11.1679    1.0970    3.0098 H       1  UNL1        0.0310
     46 H          10.6631    1.5598    4.6145 H       1  UNL1        0.0310
     47 H          11.1417   -1.2685    3.5455 H       1  UNL1        0.0271
     48 H          12.1747   -0.3880    4.6623 H       1  UNL1        0.0271
     49 H          10.7159   -2.1349    5.7393 H       1  UNL1        0.0298
     50 H          10.2072    0.7269    6.7135 H       1  UNL1        0.0232
     51 H           9.9597   -0.7526    7.6478 H       1  UNL1        0.0232
     52 H          11.5845   -0.3055    7.1130 H       1  UNL1        0.0232
     53 H           8.7576   -2.0146    4.3702 H       1  UNL1        0.0271
     54 H           8.2700   -1.6036    6.0077 H       1  UNL1        0.0271
     55 H           8.1907    0.7924    5.4467 H       1  UNL1        0.0310
     56 H           7.2162   -0.1449    4.3325 H       1  UNL1        0.0310
     57 H           9.7958   -0.2209    0.3126 H       1  UNL1        0.0624
     58 H          11.3435    0.6837   -1.3300 H       1  UNL1        0.0636
     59 H          10.8558    4.6116    0.3749 H       1  UNL1        0.0636
     60 H           9.2942    3.6987    2.0138 H       1  UNL1        0.0624
     61 H          12.1762    4.4754   -3.2054 H       1  UNL1        0.0461
     62 H          10.9546    4.8906   -2.0301 H       1  UNL1        0.0461
     63 H          12.7689    5.7233   -0.4645 H       1  UNL1        0.0245
     64 H          13.9811    5.3123   -1.6833 H       1  UNL1        0.0245
     65 H          12.7743    6.5618   -2.0251 H       1  UNL1        0.0245
     66 H          12.9820    1.5016   -2.4499 H       1  UNL1        0.0461
     67 H          13.8777    2.9663   -2.7566 H       1  UNL1        0.0461
     68 H          14.6677    3.0532   -0.3898 H       1  UNL1        0.0245
     69 H          13.8236    1.5381   -0.0478 H       1  UNL1        0.0245
     70 H          15.1522    1.5601   -1.2144 H       1  UNL1        0.0245
@<TRIPOS>BOND
     1     1    31    1
     2     1    32    1
     3     1    33    1
     4     2     1    1
     5     2    34    1
     6     2    35    1
     7     3     2    1
     8     4     3    1
     9     4    36    1
    10     4    37    1
    11     5     4    1
    12     5    38    1
    13     5    39    1
    14     5    40    1
    15     6     3    1
    16     7     6   ar
    17     7    41    1
    18     8     7   ar
    19     8    42    1
    20     9     8   ar
    21    10     9   ar
    22    10    43    1
    23    11    10   ar
    24    11     6   ar
    25    11    44    1
    26    12     9    1
    27    13    12    2
    28    14    13    1
    29    14    45    1
    30    14    46    1
    31    15    14    1
    32    15    47    1
    33    15    48    1
    34    16    15    1
    35    16    49    1
    36    17    16    1
    37    17    50    1
    38    17    51    1
    39    17    52    1
    40    18    16    1
    41    18    53    1
    42    18    54    1
    43    19    18    1
    44    19    13    1
    45    19    55    1
    46    19    56    1
    47    20    12    1
    48    21    20   ar
    49    21    57    1
    50    22    21   ar
    51    22    58    1
    52    23    22   ar
    53    24    23   ar
    54    24    59    1
    55    25    24   ar
    56    25    20   ar
    57    25    60    1
    58    26    23    1
    59    27    26    1
    60    27    61    1
    61    27    62    1
    62    28    27    1
    63    28    63    1
    64    28    64    1
    65    28    65    1
    66    29    26    1
    67    29    66    1
    68    29    67    1
    69    30    29    1
    70    30    68    1
    71    30    69    1
    72    30    70    1
@<TRIPOS>MOLECULE
mol_498_akc_journalpone0051864
>482.sdf
 88 91 0 0 0
SMALL
GASTEIGER

@<TRIPOS>ATOM
      1 C          16.9891   -5.7547    2.6233 C.3     1  UNL1       -0.0494
      2 C          16.7019   -5.0639    3.9544 C.3     1  UNL1        0.0093
      3 N          16.3025   -3.6517    3.7876 N.pl3   1  UNL1       -0.3304
      4 C          17.3599   -2.7355    3.2631 C.3     1  UNL1        0.0093
      5 C          18.7363   -2.8900    3.8949 C.3     1  UNL1       -0.0494
      6 C          14.9892   -3.4568    3.2900 C.ar    1  UNL1        0.0297
      7 C          13.8337   -4.1141    3.7713 C.ar    1  UNL1       -0.0401
      8 C          12.5239   -3.9749    3.1730 C.ar    1  UNL1       -0.0522
      9 C          12.3252   -3.1759    2.0515 C.ar    1  UNL1       -0.0166
     10 C          13.5041   -2.5254    1.6262 C.ar    1  UNL1       -0.0522
     11 C          14.7588   -2.6093    2.2330 C.ar    1  UNL1       -0.0401
     12 C          11.0695   -3.1593    1.1507 C.2     1  UNL1       -0.0030
     13 C          11.1570   -3.7474   -0.2661 C.ar    1  UNL1       -0.0166
     14 C          12.2897   -3.6410   -1.0921 C.ar    1  UNL1       -0.0522
     15 C          12.2161   -3.8781   -2.4677 C.ar    1  UNL1       -0.0401
     16 C          11.0420   -4.3277   -3.0659 C.ar    1  UNL1        0.0297
     17 C           9.9551   -4.5817   -2.2227 C.ar    1  UNL1       -0.0401
     18 C          10.0084   -4.2951   -0.8526 C.ar    1  UNL1       -0.0522
     19 N          11.0087   -4.5509   -4.4308 N.pl3   1  UNL1       -0.3304
     20 C          10.4120   -5.7778   -4.9637 C.3     1  UNL1        0.0093
     21 C          11.1146   -7.0098   -4.4032 C.3     1  UNL1       -0.0494
     22 C          11.2575   -3.4350   -5.3465 C.3     1  UNL1        0.0093
     23 C          10.0379   -2.5273   -5.4459 C.3     1  UNL1       -0.0494
     24 C          10.0375   -2.2247    1.2025 C.2     1  UNL1       -0.0084
     25 C           9.1669   -1.5882    2.5901 C.2     1  UNL1       -0.0472
     26 C           9.7250   -0.4567    2.0812 C.2     1  UNL1        0.0107
     27 C           8.9325    0.4167    1.1222 C.2     1  UNL1        0.2160
     28 C           9.3194   -0.0520   -0.4422 C.ar    1  UNL1        0.1183
     29 C           9.6256    1.0896   -1.2961 C.ar    1  UNL1        0.1596
     30 C          10.9574    1.4792   -1.4082 C.ar    1  UNL1        0.0045
     31 C          11.9306    0.6783   -0.8643 C.ar    1  UNL1       -0.0551
     32 C          11.5724   -0.5437   -0.2792 C.ar    1  UNL1       -0.0528
     33 C          10.2717   -1.0769   -0.1408 C.ar    1  UNL1        0.0023
     34 N           8.5898    1.8391   -2.1572 N.pl3   1  UNL1       -0.3825
     35 C           7.6278    0.8382   -2.7904 C.3     1  UNL1        0.0812
     36 C           7.8952    2.9260   -1.3649 C.3     1  UNL1        0.0812
     37 C           9.2688    2.5583   -3.3654 C.3     1  UNL1        0.0812
     38 N           7.6432    0.8947    1.3974 N.2     1  UNL1       -0.2331
     39 C           7.3411    1.5481    2.7155 C.3     1  UNL1        0.1352
     40 C           6.4361    0.2847    0.7349 C.3     1  UNL1        0.1352
     41 H          17.3312   -6.7783    2.7995 H       1  UNL1        0.0245
     42 H          16.0942   -5.7992    1.9952 H       1  UNL1        0.0245
     43 H          17.7696   -5.2387    2.0550 H       1  UNL1        0.0245
     44 H          15.9463   -5.6329    4.5080 H       1  UNL1        0.0461
     45 H          17.6002   -5.1153    4.5823 H       1  UNL1        0.0461
     46 H          17.4855   -2.8740    2.1805 H       1  UNL1        0.0461
     47 H          17.0496   -1.6961    3.4365 H       1  UNL1        0.0461
     48 H          18.6898   -2.8471    4.9857 H       1  UNL1        0.0245
     49 H          19.2122   -3.8302    3.5979 H       1  UNL1        0.0245
     50 H          19.3939   -2.0839    3.5471 H       1  UNL1        0.0245
     51 H          13.9228   -4.7771    4.6280 H       1  UNL1        0.0636
     52 H          11.7099   -4.5700    3.5793 H       1  UNL1        0.0624
     53 H          13.6062   -1.9984    0.6951 H       1  UNL1        0.0624
     54 H          15.5595   -2.0521    1.7506 H       1  UNL1        0.0636
     55 H          13.2577   -3.3298   -0.7321 H       1  UNL1        0.0624
     56 H          13.1115   -3.7418   -3.0726 H       1  UNL1        0.0636
     57 H           9.0338   -4.9851   -2.6364 H       1  UNL1        0.0636
     58 H           9.1145   -4.4795   -0.2488 H       1  UNL1        0.0624
     59 H           9.3364   -5.8133   -4.7583 H       1  UNL1        0.0461
     60 H          10.5210   -5.7995   -6.0541 H       1  UNL1        0.0461
     61 H          12.1988   -6.9420   -4.5445 H       1  UNL1        0.0245
     62 H          10.9265   -7.1282   -3.3310 H       1  UNL1        0.0245
     63 H          10.7566   -7.9129   -4.9046 H       1  UNL1        0.0245
     64 H          12.1253   -2.8438   -5.0320 H       1  UNL1        0.0461
     65 H          11.5031   -3.8164   -6.3447 H       1  UNL1        0.0461
     66 H           9.1470   -3.0895   -5.7441 H       1  UNL1        0.0245
     67 H           9.8240   -2.0427   -4.4871 H       1  UNL1        0.0245
     68 H          10.2088   -1.7401   -6.1876 H       1  UNL1        0.0245
     69 H           8.1462   -1.9490    2.4757 H       1  UNL1        0.0626
     70 H           9.1671    0.1581    1.4061 H       1  UNL1        0.0683
     71 H          11.2917    2.3919   -1.8893 H       1  UNL1        0.0681
     72 H          12.9723    1.0053   -0.8455 H       1  UNL1        0.0620
     73 H          12.3597   -0.9467    0.3055 H       1  UNL1        0.0624
     74 H           7.0823    0.3172   -2.0049 H       1  UNL1        0.0931
     75 H           6.9204    1.3907   -3.4165 H       1  UNL1        0.0931
     76 H           8.2074    0.1346   -3.3969 H       1  UNL1        0.0931
     77 H           7.3273    3.5579   -2.0549 H       1  UNL1        0.0931
     78 H           7.2032    2.4702   -0.6649 H       1  UNL1        0.0931
     79 H           8.6457    3.5202   -0.8342 H       1  UNL1        0.0931
     80 H           9.8373    3.4173   -2.9927 H       1  UNL1        0.0931
     81 H           9.8987    1.8421   -3.9001 H       1  UNL1        0.0931
     82 H           8.4775    2.9309   -4.0244 H       1  UNL1        0.0931
     83 H           6.5330    2.2664    2.5520 H       1  UNL1        0.0988
     84 H           7.0338    0.7724    3.4201 H       1  UNL1        0.0988
     85 H           8.2379    2.0656    3.0643 H       1  UNL1        0.0988
     86 H           6.7518   -0.4984    0.0409 H       1  UNL1        0.0988
     87 H           5.8182   -0.1763    1.5107 H       1  UNL1        0.0988
     88 H           5.8765    1.0668    0.2238 H       1  UNL1        0.0988
@<TRIPOS>UNITY_ATOM_ATTR
34 1
charge 1
38 1
charge 1
@<TRIPOS>BOND
     1     1    41    1
     2     1    42    1
     3     1    43    1
     4     2     1    1
     5     2    44    1
     6     2    45    1
     7     3     2    1
     8     4     3    1
     9     4    46    1
    10     4    47    1
    11     5     4    1
    12     5    48    1
    13     5    49    1
    14     5    50    1
    15     6     3    1
    16     7     6   ar
    17     7    51    1
    18     8     7   ar
    19     8    52    1
    20     9     8   ar
    21    10     9   ar
    22    10    53    1
    23    11    10   ar
    24    11     6   ar
    25    11    54    1
    26    12     9    1
    27    13    12    1
    28    14    13   ar
    29    14    55    1
    30    15    14   ar
    31    15    56    1
    32    16    15   ar
    33    17    16   ar
    34    17    57    1
    35    18    17   ar
    36    18    13   ar
    37    18    58    1
    38    19    16    1
    39    20    19    1
    40    20    59    1
    41    20    60    1
    42    21    20    1
    43    21    61    1
    44    21    62    1
    45    21    63    1
    46    22    19    1
    47    22    64    1
    48    22    65    1
    49    23    22    1
    50    23    66    1
    51    23    67    1
    52    23    68    1
    53    24    12    2
    54    25    24    1
    55    25    69    1
    56    26    25    2
    57    26    70    1
    58    27    26    1
    59    28    27    1
    60    29    28   ar
    61    30    29   ar
    62    30    71    1
    63    31    30   ar
    64    31    72    1
    65    32    31   ar
    66    32    73    1
    67    33    32   ar
    68    33    24    1
    69    33    28   ar
    70    34    29    1
    71    35    34    1
    72    35    74    1
    73    35    75    1
    74    35    76    1
    75    36    34    1
    76    36    77    1
    77    36    78    1
    78    36    79    1
    79    37    34    1
    80    37    80    1
    81    37    81    1
    82    37    82    1
    83    38    27    2
    84    39    38    1
    85    39    83    1
    86    39    84    1
    87    39    85    1
    88    40    38    1
    89    40    86    1
    90    40    87    1
    91    40    88    1
@<TRIPOS>MOLECULE
mol_49_akc_jejmech201502038
>49.sdf
 64 68 0 0 0
SMALL
GASTEIGER

@<TRIPOS>ATOM
      1 C           5.1018   -0.2871   -3.8442 C.3     1  UNL1        0.0131
      2 C           4.1078   -1.0309   -2.9746 C.2     1  UNL1        0.2225
      3 O           4.0749   -2.2656   -3.0390 O.2     1  UNL1       -0.2752
      4 N           3.2765   -0.2478   -2.1606 N.am    1  UNL1       -0.2180
      5 C           2.7139    0.9392   -2.6214 C.2     1  UNL1        0.1870
      6 N           2.4481    1.9624   -1.8698 N.2     1  UNL1       -0.1526
      7 N           1.7535    2.9357   -2.5652 N.am    1  UNL1       -0.1730
      8 C           1.3394    2.5954   -3.9294 C.3     1  UNL1        0.1300
      9 S           2.2229    1.0465   -4.2869 S.3     1  UNL1       -0.0587
     10 C           1.6984    3.6585   -4.9153 C.ar    1  UNL1        0.0310
     11 C           2.7405    4.5617   -4.8245 C.ar    1  UNL1        0.0377
     12 N           2.5474    5.5124   -5.7950 N.ar    1  UNL1       -0.2389
     13 N           1.5386    5.1597   -6.6303 N.ar    1  UNL1       -0.1660
     14 C           1.0187    4.0275   -6.1217 C.ar    1  UNL1        0.0989
     15 C          -0.1041    3.3449   -6.7914 C.ar    1  UNL1        0.0025
     16 C          -0.1901    1.9463   -6.8154 C.ar    1  UNL1       -0.0523
     17 C          -1.2483    1.2844   -7.4436 C.ar    1  UNL1       -0.0582
     18 C          -2.2360    2.0092   -8.1060 C.ar    1  UNL1       -0.0504
     19 C          -3.3400    1.2980   -8.8306 C.3     1  UNL1       -0.0397
     20 C          -2.1508    3.4067   -8.1159 C.ar    1  UNL1       -0.0582
     21 C          -1.0982    4.0678   -7.4619 C.ar    1  UNL1       -0.0523
     22 C           3.2580    6.7403   -5.9345 C.ar    1  UNL1        0.0654
     23 C           4.3440    7.0397   -5.0952 C.ar    1  UNL1       -0.0360
     24 C           5.0119    8.2631   -5.2092 C.ar    1  UNL1       -0.0568
     25 C           4.6100    9.2047   -6.1593 C.ar    1  UNL1       -0.0503
     26 C           5.3136   10.5265   -6.2661 C.3     1  UNL1       -0.0397
     27 C           3.5268    8.9079   -6.9936 C.ar    1  UNL1       -0.0568
     28 C           2.8553    7.6816   -6.8896 C.ar    1  UNL1       -0.0360
     29 C           1.2017    4.0202   -1.8982 C.2     1  UNL1        0.2330
     30 C           1.6478    4.2508   -0.4730 C.3     1  UNL1        0.0141
     31 O           0.4093    4.7993   -2.4289 O.2     1  UNL1       -0.2741
     32 C           2.7487   -0.8258   -0.9326 C.ar    1  UNL1        0.0432
     33 C           3.4050   -1.8848   -0.2825 C.ar    1  UNL1       -0.0399
     34 C           2.8834   -2.4648    0.8812 C.ar    1  UNL1       -0.0600
     35 C           1.6984   -1.9908    1.4323 C.ar    1  UNL1       -0.0616
     36 C           1.0309   -0.9413    0.8164 C.ar    1  UNL1       -0.0600
     37 C           1.5471   -0.3710   -0.3531 C.ar    1  UNL1       -0.0399
     38 H           6.1094   -0.6411   -3.6044 H       1  UNL1        0.0323
     39 H           4.8902   -0.5046   -4.8961 H       1  UNL1        0.0323
     40 H           5.0909    0.7925   -3.6862 H       1  UNL1        0.0323
     41 H           0.2579    2.4185   -3.9085 H       1  UNL1        0.0692
     42 H           3.5106    4.6513   -4.0756 H       1  UNL1        0.0834
     43 H           0.5842    1.3273   -6.3866 H       1  UNL1        0.0624
     44 H          -1.2741    0.1965   -7.4281 H       1  UNL1        0.0620
     45 H          -4.3157    1.6275   -8.4610 H       1  UNL1        0.0278
     46 H          -3.2712    1.4944   -9.9057 H       1  UNL1        0.0278
     47 H          -3.2788    0.2139   -8.6866 H       1  UNL1        0.0278
     48 H          -2.8988    3.9943   -8.6444 H       1  UNL1        0.0620
     49 H          -1.0532    5.1546   -7.4940 H       1  UNL1        0.0624
     50 H           4.7002    6.3511   -4.3386 H       1  UNL1        0.0639
     51 H           5.8467    8.4718   -4.5441 H       1  UNL1        0.0621
     52 H           5.6594   10.6891   -7.2916 H       1  UNL1        0.0278
     53 H           4.6382   11.3379   -5.9769 H       1  UNL1        0.0278
     54 H           6.1898   10.5672   -5.6105 H       1  UNL1        0.0278
     55 H           3.1889    9.6344   -7.7304 H       1  UNL1        0.0621
     56 H           2.0091    7.4857   -7.5451 H       1  UNL1        0.0639
     57 H           2.4434    5.0008   -0.4637 H       1  UNL1        0.0323
     58 H           0.7945    4.6226    0.1029 H       1  UNL1        0.0323
     59 H           2.0019    3.3444    0.0205 H       1  UNL1        0.0323
     60 H           4.3394   -2.2913   -0.6626 H       1  UNL1        0.0636
     61 H           3.4064   -3.2940    1.3518 H       1  UNL1        0.0618
     62 H           1.2931   -2.4426    2.3336 H       1  UNL1        0.0618
     63 H           0.0990   -0.5675    1.2345 H       1  UNL1        0.0618
     64 H           0.9511    0.4173   -0.8021 H       1  UNL1        0.0636
@<TRIPOS>BOND
     1     1    38    1
     2     1    39    1
     3     1    40    1
     4     2     1    1
     5     3     2    2
     6     4     2   am
     7     5     4    1
     8     6     5    2
     9     7     6    1
    10     8     7    1
    11     8    41    1
    12     9     8    1
    13     9     5    1
    14    10     8    1
    15    11    10   ar
    16    11    42    1
    17    12    11   ar
    18    13    12   ar
    19    14    13   ar
    20    14    10   ar
    21    15    14    1
    22    16    15   ar
    23    16    43    1
    24    17    16   ar
    25    17    44    1
    26    18    17   ar
    27    19    18    1
    28    19    45    1
    29    19    46    1
    30    19    47    1
    31    20    18   ar
    32    20    48    1
    33    21    20   ar
    34    21    15   ar
    35    21    49    1
    36    22    12    1
    37    23    22   ar
    38    23    50    1
    39    24    23   ar
    40    24    51    1
    41    25    24   ar
    42    26    25    1
    43    26    52    1
    44    26    53    1
    45    26    54    1
    46    27    25   ar
    47    27    55    1
    48    28    27   ar
    49    28    22   ar
    50    28    56    1
    51    29     7   am
    52    30    29    1
    53    30    57    1
    54    30    58    1
    55    30    59    1
    56    31    29    2
    57    32     4    1
    58    33    32   ar
    59    33    60    1
    60    34    33   ar
    61    34    61    1
    62    35    34   ar
    63    35    62    1
    64    36    35   ar
    65    36    63    1
    66    37    36   ar
    67    37    32   ar
    68    37    64    1
@<TRIPOS>MOLECULE
mol_500_akc_journalpntd0002494
>484.sdf
 40 42 0 0 0
SMALL
GASTEIGER

@<TRIPOS>ATOM
      1 C           2.0573   -0.7672   -1.6648 C.3     1  UNL1       -0.0587
      2 C           2.2042   -0.4625   -0.1563 C.3     1  UNL1       -0.0009
      3 C           3.0103   -1.6202    0.4586 C.3     1  UNL1       -0.0461
      4 C           2.8808   -1.7555    1.9698 C.3     1  UNL1       -0.0421
      5 C           3.8466   -0.9099    2.7949 C.3     1  UNL1        0.0303
      6 C           3.8658    0.6027    2.5801 C.3     1  UNL1        0.1423
      7 O           5.1723    0.9766    2.1269 O.3     1  UNL1       -0.4544
      8 C           6.0362   -0.0683    2.1722 C.2     1  UNL1        0.3353
      9 O           7.2096   -0.0260    1.8645 O.2     1  UNL1       -0.2453
     10 C           5.2837   -1.2591    2.6128 C.2     1  UNL1        0.0362
     11 C           5.8762   -2.4458    2.7915 C.2     1  UNL1       -0.0883
     12 C           2.7460    1.2899    1.7459 C.3     1  UNL1        0.1401
     13 C           2.7379    2.8046    2.1211 C.3     1  UNL1       -0.0287
     14 O           1.4810    0.8001    2.2634 O.3     1  UNL1       -0.3812
     15 C           2.7634    0.9760    0.1640 C.3     1  UNL1        0.1481
     16 C           4.0538    1.2606   -0.6192 C.3     1  UNL1        0.0004
     17 C           4.0107    2.7348   -0.9210 C.3     1  UNL1        0.0487
     18 C           2.5321    2.9753   -1.0148 C.2     1  UNL1        0.3078
     19 O           2.0066    3.9855   -1.4452 O.2     1  UNL1       -0.2508
     20 O           1.8480    1.9239   -0.4656 O.3     1  UNL1       -0.4547
     21 H           1.4448   -1.6655   -1.8074 H       1  UNL1        0.0234
     22 H           1.5684    0.0492   -2.2061 H       1  UNL1        0.0234
     23 H           3.0211   -0.9754   -2.1374 H       1  UNL1        0.0234
     24 H           1.1754   -0.5100    0.2256 H       1  UNL1        0.0338
     25 H           2.6266   -2.5604    0.0373 H       1  UNL1        0.0269
     26 H           4.0601   -1.5669    0.1499 H       1  UNL1        0.0269
     27 H           1.8463   -1.5706    2.2807 H       1  UNL1        0.0272
     28 H           3.0522   -2.8099    2.2263 H       1  UNL1        0.0272
     29 H           3.5868   -1.0882    3.8486 H       1  UNL1        0.0388
     30 H           3.7922    1.0240    3.5951 H       1  UNL1        0.0770
     31 H           6.9409   -2.5762    2.6128 H       1  UNL1        0.0540
     32 H           5.3164   -3.3165    3.1167 H       1  UNL1        0.0540
     33 H           3.4829    3.0383    2.8902 H       1  UNL1        0.0260
     34 H           2.9549    3.4898    1.3097 H       1  UNL1        0.0260
     35 H           1.7678    3.1154    2.5288 H       1  UNL1        0.0260
     36 H           1.3344    1.1573    3.1569 H       1  UNL1        0.2105
     37 H           4.9812    0.9312   -0.1589 H       1  UNL1        0.0310
     38 H           4.0398    0.7675   -1.5970 H       1  UNL1        0.0310
     39 H           4.4985    2.9681   -1.8710 H       1  UNL1        0.0379
     40 H           4.4605    3.3273   -0.1215 H       1  UNL1        0.0379
@<TRIPOS>BOND
     1     1    21    1
     2     1    22    1
     3     1    23    1
     4     3     2    1
     5     3    25    1
     6     3    26    1
     7     4     3    1
     8     4    27    1
     9     4    28    1
    10     5     4    1
    11     5    29    1
    12     6     5    1
    13     6    30    1
    14     7     6    1
    15     8     7    1
    16     9     8    2
    17    10     8    1
    18    10     5    1
    19    11    10    2
    20    11    31    1
    21    11    32    1
    22    12     6    1
    23    13    33    1
    24    13    34    1
    25    13    35    1
    26    14    36    1
    27    15    12    1
    28    15     2    1
    29    15    16    1
    30    16    37    1
    31    16    38    1
    32    17    16    1
    33    17    39    1
    34    17    40    1
    35    18    17    1
    36    19    18    2
    37    20    18    1
    38    20    15    1
    39     2    24    1
    40     2     1    1
    41    12    14    1
    42    12    13    1
@<TRIPOS>MOLECULE
mol_501_akc_journalpntd0002494
>485.sdf
 41 43 0 0 0
SMALL
GASTEIGER

@<TRIPOS>ATOM
      1 C           3.2606    8.5028   -0.8677 C.3     1  UNL1       -0.0620
      2 C           1.8021    7.9705   -0.9106 C.3     1  UNL1       -0.0370
      3 C           1.8821    6.4665   -0.6310 C.3     1  UNL1       -0.0122
      4 C           0.5825    5.7156   -0.8352 C.3     1  UNL1        0.1106
      5 C          -0.3736    5.8883    0.3267 C.3     1  UNL1        0.0280
      6 C          -1.1891    7.1598    0.1633 C.3     1  UNL1       -0.0345
      7 C          -0.5100    8.5005    0.5319 C.3     1  UNL1        0.0001
      8 C           0.9281    8.8652    0.0160 C.3     1  UNL1       -0.0281
      9 C           0.8043   10.2867   -0.6213 C.3     1  UNL1       -0.0207
     10 C          -0.5621   10.8437   -0.2660 C.3     1  UNL1        0.0819
     11 C          -1.4276    9.6078   -0.0698 C.3     1  UNL1        0.0867
     12 O          -2.5586    9.8877    0.7476 O.3     1  UNL1       -0.3887
     13 O          -0.5001   11.6384    0.9078 O.3     1  UNL1       -0.3892
     14 C          -0.4666    8.5844    2.0864 C.3     1  UNL1       -0.0568
     15 C          -1.1252    4.6100    0.1986 C.2     1  UNL1        0.0361
     16 C          -2.3808    4.2909    0.5431 C.2     1  UNL1       -0.0883
     17 C          -0.2325    3.6253   -0.4643 C.2     1  UNL1        0.3353
     18 O          -0.4214    2.4335   -0.5716 O.2     1  UNL1       -0.2453
     19 O           0.8531    4.3116   -0.9062 O.3     1  UNL1       -0.4575
     20 H           3.3734    9.3925   -1.4947 H       1  UNL1        0.0233
     21 H           3.5603    8.7698    0.1534 H       1  UNL1        0.0233
     22 H           3.9825    7.7598   -1.2220 H       1  UNL1        0.0233
     23 H           1.4457    8.0797   -1.9440 H       1  UNL1        0.0302
     24 H           2.6062    6.0251   -1.3314 H       1  UNL1        0.0304
     25 H           2.2949    6.2690    0.3654 H       1  UNL1        0.0304
     26 H           0.1362    6.0021   -1.7984 H       1  UNL1        0.0740
     27 H           0.1552    5.8681    1.2884 H       1  UNL1        0.0387
     28 H          -2.0969    7.0767    0.7776 H       1  UNL1        0.0278
     29 H          -1.5608    7.1978   -0.8697 H       1  UNL1        0.0278
     30 H           1.5383    9.0067    0.9202 H       1  UNL1        0.0310
     31 H           1.6098   10.9383   -0.2638 H       1  UNL1        0.0294
     32 H           0.8842   10.2203   -1.7122 H       1  UNL1        0.0294
     33 H          -0.9590   11.4758   -1.0677 H       1  UNL1        0.0619
     34 H          -1.7891    9.2902   -1.0567 H       1  UNL1        0.0624
     35 H          -3.2922   10.1488    0.1641 H       1  UNL1        0.2099
     36 H          -1.4030   11.6191    1.2826 H       1  UNL1        0.2099
     37 H          -0.1732    9.5812    2.4330 H       1  UNL1        0.0236
     38 H           0.2648    7.8754    2.4944 H       1  UNL1        0.0236
     39 H          -1.4343    8.3520    2.5431 H       1  UNL1        0.0236
     40 H          -3.0402    5.0025    1.0317 H       1  UNL1        0.0540
     41 H          -2.7770    3.2972    0.3588 H       1  UNL1        0.0540
@<TRIPOS>BOND
     1     1    20    1
     2     1    21    1
     3     1    22    1
     4     3     2    1
     5     4     3    1
     6     5     4    1
     7     6     5    1
     8     7     6    1
     9     8     7    1
    10     8     2    1
    11     9     8    1
    12    10     9    1
    13    11    10    1
    14    11     7    1
    15    12    35    1
    16    13    36    1
    17    14    37    1
    18    14    38    1
    19    14    39    1
    20    15     5    1
    21    16    40    1
    22    16    41    1
    23    17    15    1
    24    19    17    1
    25    19     4    1
    26     2     1    1
    27     2    23    1
    28     3    24    1
    29     3    25    1
    30     4    26    1
    31     5    27    1
    32     6    28    1
    33     6    29    1
    34     7    14    1
    35     8    30    1
    36     9    31    1
    37     9    32    1
    38    16    15    2
    39    18    17    2
    40    10    13    1
    41    10    33    1
    42    11    12    1
    43    11    34    1
@<TRIPOS>MOLECULE
mol_502_akc_s0717_97072013000200014
>486.sdf
 67 70 0 0 0
SMALL
GASTEIGER

@<TRIPOS>ATOM
      1 C          -1.1759   -7.8206   -4.5266 C.3     1  UNL1       -0.0223
      2 C           0.2653   -7.4218   -4.5989 C.ar    1  UNL1        0.0391
      3 N           0.7104   -6.6464   -3.5896 N.ar    1  UNL1       -0.2482
      4 C           1.9961   -6.2186   -3.5281 C.ar    1  UNL1        0.1127
      5 C           2.4948   -5.4051   -2.4795 C.ar    1  UNL1        0.1463
      6 O           1.7830   -4.9150   -1.3904 O.3     1  UNL1       -0.4898
      7 C           0.4366   -5.3718   -1.2995 C.3     1  UNL1        0.0897
      8 C          -0.2703   -4.8684   -0.0456 C.3     1  UNL1       -0.0186
      9 C          -1.7381   -5.3273   -0.0274 C.3     1  UNL1       -0.0500
     10 C          -1.8786   -6.8519   -0.0448 C.3     1  UNL1       -0.0530
     11 C          -3.3338   -7.3139   -0.0707 C.3     1  UNL1       -0.0531
     12 C          -3.3787   -8.8422   -0.0923 C.3     1  UNL1       -0.0530
     13 C          -4.8107   -9.3784   -0.1079 C.3     1  UNL1       -0.0500
     14 C          -4.8792  -10.9130   -0.0989 C.3     1  UNL1       -0.0186
     15 C          -4.1749  -11.5400    1.1037 C.3     1  UNL1        0.0897
     16 O          -4.7511  -11.0222    2.3044 O.3     1  UNL1       -0.4898
     17 C          -4.1910  -11.4323    3.4969 C.ar    1  UNL1        0.1463
     18 C          -2.8373  -11.7362    3.7140 C.ar    1  UNL1        0.1127
     19 N          -1.9148  -11.6517    2.7334 N.ar    1  UNL1       -0.2482
     20 C          -0.6208  -11.9504    2.9567 C.ar    1  UNL1        0.0391
     21 C           0.2843  -11.8195    1.7724 C.3     1  UNL1       -0.0223
     22 C          -0.1720  -12.3560    4.1972 C.ar    1  UNL1       -0.0401
     23 C          -1.0955  -12.4395    5.2343 C.ar    1  UNL1       -0.0508
     24 C          -2.4421  -12.1239    5.0132 C.ar    1  UNL1        0.0040
     25 C          -3.3845  -12.1799    6.0567 C.ar    1  UNL1       -0.0523
     26 C          -4.7136  -11.8437    5.8292 C.ar    1  UNL1       -0.0576
     27 C          -5.1147  -11.4642    4.5530 C.ar    1  UNL1       -0.0178
     28 C           3.8363   -4.9978   -2.4615 C.ar    1  UNL1       -0.0178
     29 C           4.7030   -5.3770   -3.4795 C.ar    1  UNL1       -0.0576
     30 C           4.2315   -6.1682   -4.5219 C.ar    1  UNL1       -0.0523
     31 C           2.8923   -6.5923   -4.5521 C.ar    1  UNL1        0.0040
     32 C           2.4173   -7.3950   -5.6018 C.ar    1  UNL1       -0.0508
     33 C           1.0931   -7.8153   -5.6294 C.ar    1  UNL1       -0.0401
     34 H          -1.3587   -8.3840   -3.6052 H       1  UNL1        0.0292
     35 H          -1.8068   -6.9254   -4.5157 H       1  UNL1        0.0292
     36 H          -1.4745   -8.4419   -5.3750 H       1  UNL1        0.0292
     37 H          -0.1333   -5.0004   -2.1588 H       1  UNL1        0.0696
     38 H           0.4578   -6.4638   -1.2523 H       1  UNL1        0.0696
     39 H           0.2554   -5.2242    0.8482 H       1  UNL1        0.0298
     40 H          -0.2250   -3.7736   -0.0125 H       1  UNL1        0.0298
     41 H          -2.2287   -4.9237    0.8655 H       1  UNL1        0.0266
     42 H          -2.2594   -4.9054   -0.8960 H       1  UNL1        0.0266
     43 H          -1.3938   -7.2718   -0.9321 H       1  UNL1        0.0265
     44 H          -1.3671   -7.2714    0.8302 H       1  UNL1        0.0265
     45 H          -3.8619   -6.9355    0.8115 H       1  UNL1        0.0265
     46 H          -3.8376   -6.9147   -0.9586 H       1  UNL1        0.0265
     47 H          -2.8384   -9.2204   -0.9695 H       1  UNL1        0.0265
     48 H          -2.8441   -9.2020    0.7934 H       1  UNL1        0.0265
     49 H          -5.3594   -8.9816    0.7540 H       1  UNL1        0.0266
     50 H          -5.3235   -9.0132   -1.0055 H       1  UNL1        0.0266
     51 H          -5.9333  -11.2112   -0.0965 H       1  UNL1        0.0298
     52 H          -4.4276  -11.3058   -1.0182 H       1  UNL1        0.0298
     53 H          -4.2821  -12.6302    1.0799 H       1  UNL1        0.0696
     54 H          -3.1227  -11.2894    0.9926 H       1  UNL1        0.0696
     55 H          -0.0667  -12.4768    0.9693 H       1  UNL1        0.0292
     56 H           0.2661  -10.7872    1.4058 H       1  UNL1        0.0292
     57 H           1.3171  -12.0852    2.0097 H       1  UNL1        0.0292
     58 H           0.8725  -12.6003    4.3641 H       1  UNL1        0.0636
     59 H          -0.7544  -12.7486    6.2203 H       1  UNL1        0.0625
     60 H          -3.0782  -12.4757    7.0593 H       1  UNL1        0.0624
     61 H          -5.4362  -11.8744    6.6414 H       1  UNL1        0.0619
     62 H          -6.1519  -11.1968    4.3675 H       1  UNL1        0.0655
     63 H           4.1985   -4.3804   -1.6431 H       1  UNL1        0.0655
     64 H           5.7406   -5.0547   -3.4604 H       1  UNL1        0.0619
     65 H           4.9176   -6.4552   -5.3164 H       1  UNL1        0.0624
     66 H           3.0818   -7.6982   -6.4086 H       1  UNL1        0.0625
     67 H           0.7246   -8.4366   -6.4398 H       1  UNL1        0.0636
@<TRIPOS>BOND
     1     1    34    1
     2     1    35    1
     3     1    36    1
     4     2     1    1
     5     3     2   ar
     6     4     3   ar
     7     5     4   ar
     8     6     5    1
     9     7     6    1
    10     7    37    1
    11     7    38    1
    12     8     7    1
    13     8    39    1
    14     8    40    1
    15     9     8    1
    16     9    41    1
    17     9    42    1
    18    10     9    1
    19    10    43    1
    20    10    44    1
    21    11    10    1
    22    11    45    1
    23    11    46    1
    24    12    11    1
    25    12    47    1
    26    12    48    1
    27    13    12    1
    28    13    49    1
    29    13    50    1
    30    14    13    1
    31    14    51    1
    32    14    52    1
    33    15    14    1
    34    15    53    1
    35    15    54    1
    36    16    15    1
    37    17    16    1
    38    18    17   ar
    39    19    18   ar
    40    20    19   ar
    41    21    20    1
    42    21    55    1
    43    21    56    1
    44    21    57    1
    45    22    20   ar
    46    22    58    1
    47    23    22   ar
    48    23    59    1
    49    24    23   ar
    50    24    18   ar
    51    25    24   ar
    52    25    60    1
    53    26    25   ar
    54    26    61    1
    55    27    26   ar
    56    27    17   ar
    57    27    62    1
    58    28     5   ar
    59    28    63    1
    60    29    28   ar
    61    29    64    1
    62    30    29   ar
    63    30    65    1
    64    31    30   ar
    65    31     4   ar
    66    32    31   ar
    67    32    66    1
    68    33    32   ar
    69    33     2   ar
    70    33    67    1
@<TRIPOS>MOLECULE
mol_503_akc_0103_505320130166
>487.sdf
 69 70 0 0 0
SMALL
GASTEIGER

@<TRIPOS>ATOM
      1 C           3.0487   -0.8487    1.0061 C.3     1  UNL1       -0.0438
      2 C           2.4270    0.0470   -0.0387 C.2     1  UNL1       -0.0762
      3 C           0.9036    0.0405   -0.0372 C.3     1  UNL1       -0.0286
      4 C           0.2754    0.9402   -1.1053 C.3     1  UNL1       -0.0303
      5 C          -1.2251    0.9498   -1.1478 C.2     1  UNL1       -0.0740
      6 C          -1.9139    1.7328   -2.0120 C.2     1  UNL1        0.0294
      7 C          -1.2644    2.6291   -3.0355 C.3     1  UNL1       -0.0332
      8 C          -3.4015    1.7260   -2.0909 C.2     1  UNL1        0.3322
      9 O          -4.0279    1.3734   -0.9545 O.3     1  UNL1       -0.4774
     10 O          -4.0087    2.0615   -3.0975 O.2     1  UNL1       -0.2455
     11 C           3.1623    0.7843   -0.8966 C.2     1  UNL1       -0.0847
     12 C           4.6555    0.8029   -0.9209 C.3     1  UNL1       -0.0308
     13 C           5.2537    1.7314   -1.9802 C.3     1  UNL1       -0.0286
     14 C           6.7687    1.7648   -1.9855 C.2     1  UNL1       -0.0762
     15 C           7.5559    0.8845   -1.0413 C.3     1  UNL1       -0.0438
     16 C           7.4110    2.5438   -2.8802 C.2     1  UNL1       -0.0849
     17 C           8.9046    2.5393   -3.0266 C.3     1  UNL1       -0.0309
     18 C           9.5138    3.8658   -3.4793 C.3     1  UNL1       -0.0097
     19 C          11.0687    3.8170   -3.5080 C.3     1  UNL1        0.1085
     20 C          11.5642    5.1871   -4.0061 C.3     1  UNL1       -0.0249
     21 C          11.5494    2.6511   -4.3892 C.3     1  UNL1       -0.0091
     22 C          13.0623    2.5718   -4.4134 C.3     1  UNL1       -0.0205
     23 C          13.6138    2.7387   -3.0283 C.ar    1  UNL1       -0.0018
     24 C          12.8261    3.2418   -1.9790 C.ar    1  UNL1        0.1276
     25 O          11.5189    3.6308   -2.1490 O.3     1  UNL1       -0.4854
     26 C          13.3616    3.3657   -0.6858 C.ar    1  UNL1       -0.0050
     27 C          12.5233    3.8552    0.4613 C.3     1  UNL1       -0.0361
     28 C          14.7062    3.0302   -0.4695 C.ar    1  UNL1       -0.0138
     29 C          15.4901    2.5709   -1.5210 C.ar    1  UNL1        0.1176
     30 O          16.7971    2.2800   -1.2632 O.3     1  UNL1       -0.5067
     31 C          14.9556    2.4157   -2.7940 C.ar    1  UNL1       -0.0135
     32 H           2.7408   -0.5318    2.0076 H       1  UNL1        0.0274
     33 H           2.7329   -1.8854    0.8520 H       1  UNL1        0.0274
     34 H           4.1425   -0.8427    0.9901 H       1  UNL1        0.0274
     35 H           0.5623   -0.9916   -0.1840 H       1  UNL1        0.0313
     36 H           0.5579    0.3577    0.9552 H       1  UNL1        0.0313
     37 H           0.6154    1.9692   -0.9308 H       1  UNL1        0.0311
     38 H           0.6319    0.6091   -2.0900 H       1  UNL1        0.0311
     39 H          -1.7256    0.2526   -0.4835 H       1  UNL1        0.0577
     40 H          -1.5414    2.3160   -4.0479 H       1  UNL1        0.0280
     41 H          -1.5812    3.6662   -2.8886 H       1  UNL1        0.0280
     42 H          -0.1720    2.6206   -2.9940 H       1  UNL1        0.0280
     43 H           2.6903    1.4158   -1.6435 H       1  UNL1        0.0572
     44 H           5.0070    1.1253    0.0665 H       1  UNL1        0.0310
     45 H           4.9967   -0.2205   -1.1196 H       1  UNL1        0.0310
     46 H           4.9071    1.4064   -2.9716 H       1  UNL1        0.0313
     47 H           4.8726    2.7507   -1.8288 H       1  UNL1        0.0313
     48 H           8.2212    0.2225   -1.6065 H       1  UNL1        0.0274
     49 H           8.1494    1.5023   -0.3583 H       1  UNL1        0.0274
     50 H           6.9541    0.2315   -0.4114 H       1  UNL1        0.0274
     51 H           6.8442    3.1463   -3.5819 H       1  UNL1        0.0572
     52 H           9.3869    2.2550   -2.0872 H       1  UNL1        0.0309
     53 H           9.1275    1.7612   -3.7636 H       1  UNL1        0.0309
     54 H           9.1298    4.1224   -4.4754 H       1  UNL1        0.0306
     55 H           9.1859    4.6560   -2.7905 H       1  UNL1        0.0306
     56 H          11.2903    5.3521   -5.0528 H       1  UNL1        0.0268
     57 H          11.1335    5.9944   -3.4023 H       1  UNL1        0.0268
     58 H          12.6491    5.2969   -3.9126 H       1  UNL1        0.0268
     59 H          11.2025    1.6981   -3.9703 H       1  UNL1        0.0307
     60 H          11.1512    2.7246   -5.4072 H       1  UNL1        0.0307
     61 H          13.3584    1.5973   -4.8213 H       1  UNL1        0.0316
     62 H          13.4761    3.3471   -5.0677 H       1  UNL1        0.0316
     63 H          12.1353    4.8569    0.2525 H       1  UNL1        0.0279
     64 H          11.6884    3.1697    0.6400 H       1  UNL1        0.0279
     65 H          13.1065    3.9133    1.3872 H       1  UNL1        0.0279
     66 H          15.1518    3.1333    0.5163 H       1  UNL1        0.0658
     67 H          17.2211    2.0063   -2.0929 H       1  UNL1        0.2921
     68 H          15.5680    2.0447   -3.6101 H       1  UNL1        0.0658
     69 H          -3.4426    1.3030   -0.1804 H       1  UNL1        0.2954
@<TRIPOS>BOND
     1     1    32    1
     2     1    33    1
     3     1    34    1
     4     2     1    1
     5     3     2    1
     6     3    35    1
     7     3    36    1
     8     4     3    1
     9     4    37    1
    10     4    38    1
    11     5     4    1
    12     5    39    1
    13     6     5    2
    14     7     6    1
    15     7    40    1
    16     7    41    1
    17     7    42    1
    18     8     6    1
    19     9     8    1
    20    10     8    2
    21    11     2    2
    22    11    43    1
    23    12    11    1
    24    12    44    1
    25    12    45    1
    26    13    12    1
    27    13    46    1
    28    13    47    1
    29    14    13    1
    30    15    14    1
    31    15    48    1
    32    15    49    1
    33    15    50    1
    34    16    14    2
    35    16    51    1
    36    17    16    1
    37    17    52    1
    38    17    53    1
    39    18    17    1
    40    18    54    1
    41    18    55    1
    42    19    18    1
    43    20    19    1
    44    20    56    1
    45    20    57    1
    46    20    58    1
    47    21    19    1
    48    21    59    1
    49    21    60    1
    50    22    21    1
    51    22    61    1
    52    22    62    1
    53    23    22    1
    54    24    23   ar
    55    25    24    1
    56    25    19    1
    57    26    24   ar
    58    27    26    1
    59    27    63    1
    60    27    64    1
    61    27    65    1
    62    28    26   ar
    63    28    66    1
    64    29    28   ar
    65    30    29    1
    66    30    67    1
    67    31    29   ar
    68    31    23   ar
    69    31    68    1
    70     9    69    1
@<TRIPOS>MOLECULE
mol_504_akc_jchemphyslip201305002
>488.sdf
 52 51 0 0 0
SMALL
GASTEIGER

@<TRIPOS>ATOM
      1 C           1.0243    0.0244   -0.0992 C.3     1  UNL1       -0.0653
      2 C           2.5401    0.0205   -0.0940 C.3     1  UNL1       -0.0559
      3 C           3.0627   -0.8358    1.0493 C.3     1  UNL1       -0.0533
      4 C           4.5827   -0.8415    1.0569 C.3     1  UNL1       -0.0531
      5 C           5.0966   -1.7002    2.2002 C.3     1  UNL1       -0.0531
      6 C           6.6152   -1.7039    2.2051 C.3     1  UNL1       -0.0531
      7 C           7.1264   -2.5622    3.3478 C.3     1  UNL1       -0.0531
      8 C           8.6438   -2.5654    3.3521 C.3     1  UNL1       -0.0531
      9 C           9.1542   -3.4235    4.4945 C.3     1  UNL1       -0.0531
     10 C          10.6713   -3.4266    4.4986 C.3     1  UNL1       -0.0531
     11 C          11.1822   -4.2861    5.6395 C.3     1  UNL1       -0.0531
     12 C          12.6992   -4.2906    5.6422 C.3     1  UNL1       -0.0530
     13 C          13.2105   -5.1516    6.7818 C.3     1  UNL1       -0.0522
     14 C          14.7279   -5.1562    6.7877 C.3     1  UNL1       -0.0422
     15 C          15.2324   -6.0182    7.9252 C.3     1  UNL1        0.0097
     16 C          16.7524   -6.0198    7.9240 C.1     1  UNL1       -0.0907
     17 C          18.0563   -6.0211    7.9230 C.1     1  UNL1        0.0154
     18 C          19.5142   -5.9777    7.8740 C.2     1  UNL1        0.3829
     19 O          20.1499   -6.7873    8.7326 O.3     1  UNL1       -0.4713
     20 O          20.0807   -5.2395    7.0890 O.2     1  UNL1       -0.2352
     21 H           0.6496    0.6403   -0.9215 H       1  UNL1        0.0230
     22 H           0.6363   -0.9916   -0.2225 H       1  UNL1        0.0230
     23 H           0.6363    0.4286    0.8411 H       1  UNL1        0.0230
     24 H           2.9117   -0.3665   -1.0507 H       1  UNL1        0.0263
     25 H           2.9118    1.0475    0.0082 H       1  UNL1        0.0263
     26 H           2.6900   -0.4500    2.0066 H       1  UNL1        0.0265
     27 H           2.6900   -1.8629    0.9484 H       1  UNL1        0.0265
     28 H           4.9598   -1.2294    0.1031 H       1  UNL1        0.0265
     29 H           4.9597    0.1827    1.1636 H       1  UNL1        0.0265
     30 H           4.7226   -1.3141    3.1560 H       1  UNL1        0.0265
     31 H           4.7226   -2.7257    2.0956 H       1  UNL1        0.0265
     32 H           6.9914   -2.0911    1.2506 H       1  UNL1        0.0265
     33 H           6.9914   -0.6793    2.3111 H       1  UNL1        0.0265
     34 H           6.7513   -2.1754    4.3030 H       1  UNL1        0.0265
     35 H           6.7513   -3.5874    3.2424 H       1  UNL1        0.0265
     36 H           9.0196   -2.9525    2.3972 H       1  UNL1        0.0265
     37 H           9.0196   -1.5405    3.4578 H       1  UNL1        0.0265
     38 H           8.7787   -3.0366    5.4495 H       1  UNL1        0.0265
     39 H           8.7786   -4.4485    4.3888 H       1  UNL1        0.0265
     40 H          11.0468   -3.8123    3.5429 H       1  UNL1        0.0265
     41 H          11.0469   -2.4017    4.6055 H       1  UNL1        0.0265
     42 H          10.8074   -3.8997    6.5953 H       1  UNL1        0.0265
     43 H          10.8051   -5.3108    5.5332 H       1  UNL1        0.0265
     44 H          13.0735   -4.6757    4.6856 H       1  UNL1        0.0265
     45 H          13.0757   -3.2658    5.7497 H       1  UNL1        0.0265
     46 H          12.8340   -4.7674    7.7379 H       1  UNL1        0.0266
     47 H          12.8338   -6.1763    6.6732 H       1  UNL1        0.0266
     48 H          15.1067   -5.5361    5.8303 H       1  UNL1        0.0274
     49 H          15.1068   -4.1317    6.8945 H       1  UNL1        0.0274
     50 H          14.8809   -5.6372    8.8907 H       1  UNL1        0.0397
     51 H          14.8787   -7.0501    7.8211 H       1  UNL1        0.0397
     52 H          19.5707   -7.3250    9.3047 H       1  UNL1        0.2961
@<TRIPOS>BOND
     1     1    21    1
     2     1    22    1
     3     1    23    1
     4     2     1    1
     5     2    24    1
     6     2    25    1
     7     3     2    1
     8     3    26    1
     9     3    27    1
    10     4     3    1
    11     4    28    1
    12     4    29    1
    13     5     4    1
    14     5    30    1
    15     5    31    1
    16     6     5    1
    17     6    32    1
    18     6    33    1
    19     7     6    1
    20     7    34    1
    21     7    35    1
    22     8     7    1
    23     8    36    1
    24     8    37    1
    25     9     8    1
    26     9    38    1
    27     9    39    1
    28    10     9    1
    29    10    40    1
    30    10    41    1
    31    11    10    1
    32    11    42    1
    33    11    43    1
    34    12    11    1
    35    12    44    1
    36    12    45    1
    37    13    12    1
    38    13    46    1
    39    13    47    1
    40    14    13    1
    41    14    48    1
    42    14    49    1
    43    15    14    1
    44    15    50    1
    45    15    51    1
    46    16    15    1
    47    17    16    3
    48    18    17    1
    49    19    18    1
    50    20    18    2
    51    19    52    1
@<TRIPOS>MOLECULE
mol_505_akc_s0102_695x2013005000022
>489.sdf
 43 45 0 0 0
SMALL
GASTEIGER

@<TRIPOS>ATOM
      1 O           1.4124    0.4915    0.6552 O.2     1  UNL1       -0.2706
      2 C           2.4632    0.1283    0.1361 C.2     1  UNL1        0.2394
      3 C           3.1780   -1.0828    0.6253 C.2     1  UNL1        0.0003
      4 C           2.5156   -2.0444    1.2892 C.2     1  UNL1       -0.0571
      5 C           3.1852   -3.1803    1.8861 C.2     1  UNL1       -0.0655
      6 C           2.5473   -4.1176    2.6066 C.2     1  UNL1       -0.0837
      7 C           3.2625   -5.2360    3.3209 C.3     1  UNL1       -0.0305
      8 C           2.4863   -6.5586    3.2923 C.3     1  UNL1       -0.0241
      9 C           3.2172   -7.6488    4.0465 C.ar    1  UNL1       -0.0434
     10 C           3.0136   -7.8187    5.4262 C.ar    1  UNL1       -0.0130
     11 C           3.7300   -8.8036    6.0746 C.ar    1  UNL1        0.1665
     12 C           4.6220   -9.6084    5.4084 C.ar    1  UNL1        0.1662
     13 O           5.2266  -10.5082    6.2307 O.3     1  UNL1       -0.4526
     14 C           4.6397  -10.1513    7.4989 C.3     1  UNL1        0.2332
     15 O           3.6603   -9.0958    7.4027 O.3     1  UNL1       -0.4526
     16 C           4.8469   -9.4751    4.0571 C.ar    1  UNL1       -0.0159
     17 C           4.1392   -8.4813    3.3718 C.ar    1  UNL1       -0.0549
     18 N           3.0692    0.8095   -0.8965 N.am    1  UNL1       -0.2980
     19 C           2.5155    2.0514   -1.4022 C.3     1  UNL1        0.0150
     20 C           2.9318    2.0717   -2.8633 C.3     1  UNL1       -0.0357
     21 C           4.2936    1.3893   -2.8414 C.3     1  UNL1       -0.0357
     22 C           4.1659    0.3458   -1.7361 C.3     1  UNL1        0.0150
     23 H           4.2491   -1.1210    0.4946 H       1  UNL1        0.0669
     24 H           1.4377   -1.9616    1.4242 H       1  UNL1        0.0619
     25 H           4.2678   -3.2314    1.7838 H       1  UNL1        0.0614
     26 H           1.4695   -4.0563    2.7432 H       1  UNL1        0.0572
     27 H           4.2609   -5.3862    2.8902 H       1  UNL1        0.0311
     28 H           3.4103   -4.9275    4.3634 H       1  UNL1        0.0311
     29 H           1.4902   -6.4246    3.7348 H       1  UNL1        0.0316
     30 H           2.3146   -6.8810    2.2577 H       1  UNL1        0.0316
     31 H           2.3184   -7.1946    5.9792 H       1  UNL1        0.0658
     32 H           4.1608  -11.0392    7.9274 H       1  UNL1        0.1166
     33 H           5.4395   -9.8248    8.1740 H       1  UNL1        0.1166
     34 H           5.5550  -10.1167    3.5426 H       1  UNL1        0.0655
     35 H           4.3089   -8.3528    2.3045 H       1  UNL1        0.0621
     36 H           2.9925    2.8694   -0.8493 H       1  UNL1        0.0465
     37 H           1.4325    2.1151   -1.2645 H       1  UNL1        0.0465
     38 H           2.2285    1.4791   -3.4601 H       1  UNL1        0.0281
     39 H           2.9690    3.0828   -3.2782 H       1  UNL1        0.0281
     40 H           4.5548    0.9418   -3.8049 H       1  UNL1        0.0281
     41 H           5.0723    2.1166   -2.5842 H       1  UNL1        0.0281
     42 H           3.9109   -0.6410   -2.1353 H       1  UNL1        0.0465
     43 H           5.0844    0.2712   -1.1472 H       1  UNL1        0.0465
@<TRIPOS>BOND
     1     2     1    2
     2     3     2    1
     3     3    23    1
     4     4     3    2
     5     4    24    1
     6     5     4    1
     7     5    25    1
     8     6     5    2
     9     6    26    1
    10     7     6    1
    11     7    27    1
    12     7    28    1
    13     8     7    1
    14     8    29    1
    15     8    30    1
    16     9     8    1
    17    10     9   ar
    18    10    31    1
    19    11    10   ar
    20    12    11   ar
    21    13    12    1
    22    14    13    1
    23    14    32    1
    24    14    33    1
    25    15    14    1
    26    15    11    1
    27    16    12   ar
    28    16    34    1
    29    17    16   ar
    30    17     9   ar
    31    17    35    1
    32    18     2   am
    33    19    18    1
    34    19    36    1
    35    19    37    1
    36    20    19    1
    37    20    38    1
    38    20    39    1
    39    21    20    1
    40    21    40    1
    41    21    41    1
    42    22    21    1
    43    22    18    1
    44    22    42    1
    45    22    43    1
@<TRIPOS>MOLECULE
mol_508_akc_jbmcl201210110
>492.sdf
 66 69 0 0 0
SMALL
GASTEIGER

@<TRIPOS>ATOM
      1 C           1.3866    1.2194   -0.3795 C.3     1  UNL1        0.0790
      2 O           2.2997    0.1985    0.0131 O.3     1  UNL1       -0.4915
      3 C           2.9580   -0.4452   -1.0022 C.ar    1  UNL1        0.1615
      4 C           3.1644    0.1518   -2.2498 C.ar    1  UNL1       -0.0160
      5 C           3.8606   -0.5128   -3.2572 C.ar    1  UNL1       -0.0530
      6 C           4.4154   -1.7780   -3.0366 C.ar    1  UNL1       -0.0211
      7 C           4.2325   -2.3670   -1.7760 C.ar    1  UNL1       -0.0113
      8 C           3.4977   -1.7207   -0.7657 C.ar    1  UNL1        0.1618
      9 O           3.4307   -2.4436    0.4003 O.3     1  UNL1       -0.4914
     10 C           2.2453   -2.2908    1.1728 C.3     1  UNL1        0.0790
     11 C           5.1717   -2.5147   -4.1328 C.3     1  UNL1        0.0767
     12 C           4.2221   -3.3662   -4.9747 C.3     1  UNL1        0.0157
     13 C           4.4420   -2.7759   -6.3404 C.2     1  UNL1        0.0616
     14 C           3.7667   -3.3106   -7.5494 C.2     1  UNL1       -0.0386
     15 C           2.9422   -4.3708   -7.5174 C.2     1  UNL1       -0.0564
     16 C           2.3038   -4.9576   -8.6967 C.2     1  UNL1       -0.0427
     17 C           3.0268   -5.5008   -9.7088 C.2     1  UNL1       -0.0689
     18 C           4.5329   -5.6475   -9.7299 C.3     1  UNL1       -0.0432
     19 C           2.3902   -6.0779  -10.9560 C.3     1  UNL1       -0.0314
     20 C           0.9128   -5.7515  -11.1199 C.3     1  UNL1       -0.0486
     21 C           0.1920   -5.9168   -9.7933 C.3     1  UNL1       -0.0436
     22 C           0.7535   -4.9725   -8.6951 C.3     1  UNL1       -0.0099
     23 C           0.1676   -5.4789   -7.3554 C.3     1  UNL1       -0.0558
     24 C           0.2259   -3.5416   -8.9392 C.3     1  UNL1       -0.0558
     25 N           5.2848   -1.7869   -6.3897 N.2     1  UNL1       -0.1837
     26 N           5.7661   -1.6112   -5.1219 N.pl3   1  UNL1       -0.2165
     27 C           6.7908   -0.7027   -4.8566 C.ar    1  UNL1        0.0522
     28 C           6.9841    0.4245   -5.6716 C.ar    1  UNL1       -0.0389
     29 C           7.9815    1.3670   -5.3958 C.ar    1  UNL1       -0.0600
     30 C           8.8290    1.1848   -4.3078 C.ar    1  UNL1       -0.0616
     31 C           8.6690    0.0708   -3.4910 C.ar    1  UNL1       -0.0600
     32 C           7.6532   -0.8524   -3.7587 C.ar    1  UNL1       -0.0389
     33 H           1.9155    2.1053   -0.7466 H       1  UNL1        0.0660
     34 H           0.6751    0.8470   -1.1257 H       1  UNL1        0.0660
     35 H           0.8180    1.5214    0.5037 H       1  UNL1        0.0660
     36 H           2.8168    1.1548   -2.4727 H       1  UNL1        0.0655
     37 H           3.9902   -0.0116   -4.2155 H       1  UNL1        0.0622
     38 H           4.6552   -3.3477   -1.5646 H       1  UNL1        0.0659
     39 H           2.2848   -1.3852    1.7831 H       1  UNL1        0.0660
     40 H           1.3450   -2.3201    0.5489 H       1  UNL1        0.0660
     41 H           2.1922   -3.1372    1.8656 H       1  UNL1        0.0660
     42 H           5.9426   -3.1585   -3.6913 H       1  UNL1        0.0573
     43 H           4.5214   -4.4188   -4.9665 H       1  UNL1        0.0351
     44 H           3.1698   -3.2790   -4.6874 H       1  UNL1        0.0351
     45 H           4.0211   -2.8132   -8.4774 H       1  UNL1        0.0636
     46 H           2.6941   -4.8531   -6.5770 H       1  UNL1        0.0621
     47 H           4.7985   -6.7005   -9.8841 H       1  UNL1        0.0275
     48 H           4.9572   -5.0634  -10.5521 H       1  UNL1        0.0275
     49 H           5.0268   -5.3372   -8.8066 H       1  UNL1        0.0275
     50 H           2.9205   -5.7166  -11.8455 H       1  UNL1        0.0310
     51 H           2.5152   -7.1680  -10.9316 H       1  UNL1        0.0310
     52 H           0.4722   -6.4169  -11.8716 H       1  UNL1        0.0269
     53 H           0.7922   -4.7305  -11.4992 H       1  UNL1        0.0269
     54 H           0.2906   -6.9637   -9.4733 H       1  UNL1        0.0274
     55 H          -0.8815   -5.7416   -9.9384 H       1  UNL1        0.0274
     56 H           0.3746   -4.7926   -6.5271 H       1  UNL1        0.0238
     57 H          -0.9229   -5.5784   -7.4178 H       1  UNL1        0.0238
     58 H           0.5749   -6.4618   -7.0912 H       1  UNL1        0.0238
     59 H          -0.8688   -3.5333   -8.9971 H       1  UNL1        0.0238
     60 H           0.5128   -2.8620   -8.1294 H       1  UNL1        0.0238
     61 H           0.6069   -3.1182   -9.8734 H       1  UNL1        0.0238
     62 H           6.3212    0.5921   -6.5178 H       1  UNL1        0.0637
     63 H           8.0888    2.2430   -6.0297 H       1  UNL1        0.0618
     64 H           9.6129    1.9073   -4.0978 H       1  UNL1        0.0618
     65 H           9.3296   -0.0841   -2.6432 H       1  UNL1        0.0618
     66 H           7.5618   -1.7065   -3.0955 H       1  UNL1        0.0637
@<TRIPOS>BOND
     1     1    33    1
     2     1    34    1
     3     1    35    1
     4     2     1    1
     5     3     2    1
     6     4     3   ar
     7     4    36    1
     8     5     4   ar
     9     5    37    1
    10     6     5   ar
    11     7     6   ar
    12     7    38    1
    13     8     7   ar
    14     8     3   ar
    15     9     8    1
    16    10     9    1
    17    10    39    1
    18    10    40    1
    19    10    41    1
    20    11     6    1
    21    11    42    1
    22    12    11    1
    23    12    43    1
    24    12    44    1
    25    13    12    1
    26    14    13    1
    27    14    45    1
    28    15    14    2
    29    15    46    1
    30    16    15    1
    31    17    16    2
    32    18    17    1
    33    18    47    1
    34    18    48    1
    35    18    49    1
    36    19    17    1
    37    19    50    1
    38    19    51    1
    39    20    19    1
    40    20    52    1
    41    20    53    1
    42    21    20    1
    43    21    54    1
    44    21    55    1
    45    22    21    1
    46    22    16    1
    47    23    22    1
    48    23    56    1
    49    23    57    1
    50    23    58    1
    51    24    22    1
    52    24    59    1
    53    24    60    1
    54    24    61    1
    55    25    13    2
    56    26    25    1
    57    26    11    1
    58    27    26    1
    59    28    27   ar
    60    28    62    1
    61    29    28   ar
    62    29    63    1
    63    30    29   ar
    64    30    64    1
    65    31    30   ar
    66    31    65    1
    67    32    31   ar
    68    32    27   ar
    69    32    66    1
@<TRIPOS>MOLECULE
mol_509_akc_jejmech201210047
>493.sdf
 33 34 0 0 0
SMALL
GASTEIGER

@<TRIPOS>ATOM
      1 C           1.1312   -0.1997   -0.1401 C.3     1  UNL1        0.0790
      2 O           2.5349   -0.0242   -0.0897 O.3     1  UNL1       -0.4914
      3 C           3.0870    1.2262   -0.1043 C.ar    1  UNL1        0.1619
      4 C           2.4664    2.4824   -0.1330 C.ar    1  UNL1        0.1585
      5 O           1.1220    2.7099   -0.1566 O.3     1  UNL1       -0.5033
      6 C           3.2332    3.6498   -0.1479 C.ar    1  UNL1       -0.0159
      7 C           4.6249    3.5840   -0.1422 C.ar    1  UNL1       -0.0494
      8 C           5.2591    2.3404   -0.1330 C.ar    1  UNL1       -0.0018
      9 C           6.7387    2.2712   -0.1624 C.2     1  UNL1        0.0529
     10 N           7.4177    3.3702   -0.1788 N.2     1  UNL1       -0.1874
     11 N           8.7726    3.2994   -0.2201 N.am    1  UNL1       -0.2014
     12 C           9.4889    4.4891   -0.2408 C.2     1  UNL1        0.2914
     13 O           8.9685    5.6051   -0.2094 O.2     1  UNL1       -0.2664
     14 C          10.9431    4.3394   -0.3032 C.ar    1  UNL1        0.2442
     15 N          11.5240    3.1297   -0.3525 N.ar    1  UNL1        0.0024
     16 O          12.8983    3.3573   -0.4104 O.2     1  UNL1       -0.0984
     17 N          13.1097    4.7751   -0.3915 N.ar    1  UNL1        0.0538
     18 O          14.2949    5.1716   -0.4388 O.co2   1  UNL1       -0.5775
     19 C          11.9192    5.3669   -0.3234 C.ar    1  UNL1        0.2787
     20 C          11.8341    6.8348   -0.2868 C.3     1  UNL1        0.0291
     21 C           4.4944    1.1708   -0.1104 C.ar    1  UNL1       -0.0077
     22 H           0.6704    0.1176    0.8004 H       1  UNL1        0.0660
     23 H           0.6863    0.2994   -1.0057 H       1  UNL1        0.0660
     24 H           0.9337   -1.2717   -0.2411 H       1  UNL1        0.0660
     25 H           0.6780    2.0435    0.3832 H       1  UNL1        0.2923
     26 H           2.7460    4.6217   -0.1616 H       1  UNL1        0.0655
     27 H           5.2020    4.5040   -0.1534 H       1  UNL1        0.0625
     28 H           7.2131    1.2761   -0.1734 H       1  UNL1        0.0851
     29 H           9.2605    2.4102   -0.2534 H       1  UNL1        0.1776
     30 H          12.3748    7.2319    0.5788 H       1  UNL1        0.0339
     31 H          12.2681    7.2711   -1.1925 H       1  UNL1        0.0339
     32 H          10.8047    7.1922   -0.2157 H       1  UNL1        0.0339
     33 H           4.9826    0.1989   -0.1082 H       1  UNL1        0.0662
@<TRIPOS>UNITY_ATOM_ATTR
17 1
charge 1
18 1
charge -1
@<TRIPOS>BOND
     1     1    22    1
     2     1    23    1
     3     1    24    1
     4     2     1    1
     5     3     2    1
     6     4     3   ar
     7     5     4    1
     8     5    25    1
     9     6     4   ar
    10     6    26    1
    11     7     6   ar
    12     7    27    1
    13     8     7   ar
    14     9     8    1
    15     9    28    1
    16    10     9    2
    17    11    10    1
    18    11    29    1
    19    12    11   am
    20    13    12    2
    21    14    12    1
    22    15    14   ar
    23    16    15   ar
    24    17    16   ar
    25    18    17    1
    26    19    17   ar
    27    19    14   ar
    28    20    19    1
    29    20    30    1
    30    20    31    1
    31    20    32    1
    32    21     8   ar
    33    21     3   ar
    34    21    33    1
@<TRIPOS>MOLECULE
mol_50_akc_jejmech201502038
>50.sdf
 57 61 0 0 0
SMALL
GASTEIGER

@<TRIPOS>ATOM
      1 C          -7.0754   -1.9773  -13.3887 C.3     1  UNL1       -0.0397
      2 C          -7.2941   -1.0745  -12.2091 C.ar    1  UNL1       -0.0503
      3 C          -7.0964   -1.5357  -10.9029 C.ar    1  UNL1       -0.0568
      4 C          -7.2631   -0.6786   -9.8089 C.ar    1  UNL1       -0.0360
      5 C          -7.6271    0.6589  -10.0116 C.ar    1  UNL1        0.0654
      6 C          -7.8416    1.1183  -11.3196 C.ar    1  UNL1       -0.0360
      7 C          -7.6699    0.2582  -12.4079 C.ar    1  UNL1       -0.0568
      8 N          -7.7663    1.5637   -8.9198 N.ar    1  UNL1       -0.2387
      9 C          -7.5098    1.3323   -7.5925 C.ar    1  UNL1        0.0405
     10 C          -7.7997    2.4909   -6.9025 C.ar    1  UNL1        0.0405
     11 C          -7.6939    2.5864   -5.4663 C.2     1  UNL1        0.0607
     12 N          -8.4370    3.4181   -4.8171 N.2     1  UNL1       -0.1547
     13 N          -8.2373    3.3547   -3.4484 N.2     1  UNL1       -0.1262
     14 C          -9.1221    3.9568   -2.7131 C.2     1  UNL1        0.1894
     15 S          -8.7417    4.0941   -1.0065 S.3     1  UNL1       -0.0786
     16 C         -10.1682    5.1251   -0.6692 C.3     1  UNL1        0.0784
     17 C         -10.9056    5.2973   -1.9678 C.2     1  UNL1        0.2359
     18 O         -11.9372    5.9644   -2.0185 O.2     1  UNL1       -0.2739
     19 N         -10.3158    4.5915   -3.0063 N.am    1  UNL1       -0.2169
     20 C         -10.9872    4.5010   -4.2552 C.ar    1  UNL1        0.0432
     21 C         -11.4164    5.6593   -4.9149 C.ar    1  UNL1       -0.0399
     22 C         -12.0168    5.5731   -6.1720 C.ar    1  UNL1       -0.0600
     23 C         -12.2216    4.3301   -6.7678 C.ar    1  UNL1       -0.0616
     24 C         -11.8491    3.1684   -6.0969 C.ar    1  UNL1       -0.0600
     25 C         -11.2424    3.2526   -4.8425 C.ar    1  UNL1       -0.0399
     26 C          -8.1956    3.4255   -7.9137 C.ar    1  UNL1        0.1017
     27 N          -8.1753    2.8338   -9.1225 N.ar    1  UNL1       -0.1657
     28 C          -8.5589    4.8515   -7.8257 C.ar    1  UNL1        0.0028
     29 C          -8.0811    5.6809   -6.8061 C.ar    1  UNL1       -0.0522
     30 C          -8.4499    7.0286   -6.7346 C.ar    1  UNL1       -0.0582
     31 C          -9.2734    7.5924   -7.7126 C.ar    1  UNL1       -0.0504
     32 C          -9.6855    9.0317   -7.6339 C.3     1  UNL1       -0.0397
     33 C          -9.7347    6.7828   -8.7546 C.ar    1  UNL1       -0.0582
     34 C          -9.3787    5.4271   -8.8084 C.ar    1  UNL1       -0.0522
     35 H          -7.9520   -1.9633  -14.0446 H       1  UNL1        0.0278
     36 H          -6.1976   -1.6489  -13.9529 H       1  UNL1        0.0278
     37 H          -6.9116   -3.0128  -13.0749 H       1  UNL1        0.0278
     38 H          -6.8057   -2.5695  -10.7265 H       1  UNL1        0.0621
     39 H          -7.1019   -1.0917   -8.8187 H       1  UNL1        0.0639
     40 H          -8.1272    2.1516  -11.5106 H       1  UNL1        0.0639
     41 H          -7.8246    0.6403  -13.4154 H       1  UNL1        0.0621
     42 H          -7.1716    0.3719   -7.2333 H       1  UNL1        0.0837
     43 H          -6.9967    1.8993   -4.9525 H       1  UNL1        0.0855
     44 H          -9.8653    6.1017   -0.2821 H       1  UNL1        0.0476
     45 H         -10.8183    4.6185    0.0493 H       1  UNL1        0.0476
     46 H         -11.2343    6.6417   -4.4877 H       1  UNL1        0.0636
     47 H         -12.2892    6.4812   -6.7031 H       1  UNL1        0.0618
     48 H         -12.6541    4.2700   -7.7628 H       1  UNL1        0.0618
     49 H         -12.0095    2.1986   -6.5597 H       1  UNL1        0.0618
     50 H         -10.9507    2.3355   -4.3375 H       1  UNL1        0.0636
     51 H          -7.4120    5.3009   -6.0390 H       1  UNL1        0.0624
     52 H          -8.0862    7.6305   -5.9049 H       1  UNL1        0.0620
     53 H          -9.5025    9.5320   -8.5901 H       1  UNL1        0.0278
     54 H         -10.7487    9.1057   -7.3847 H       1  UNL1        0.0278
     55 H          -9.1170    9.5681   -6.8667 H       1  UNL1        0.0278
     56 H         -10.3790    7.1939   -9.5281 H       1  UNL1        0.0620
     57 H          -9.7615    4.8191   -9.6265 H       1  UNL1        0.0624
@<TRIPOS>BOND
     1     1    35    1
     2     1    36    1
     3     1    37    1
     4     2     1    1
     5     3     2   ar
     6     3    38    1
     7     4     3   ar
     8     4    39    1
     9     5     4   ar
    10     6     5   ar
    11     6    40    1
    12     7     6   ar
    13     7     2   ar
    14     7    41    1
    15     8     5    1
    16     9     8   ar
    17     9    42    1
    18    10     9   ar
    19    11    10    1
    20    11    43    1
    21    12    11    2
    22    13    12    1
    23    14    13    2
    24    15    14    1
    25    16    15    1
    26    16    44    1
    27    16    45    1
    28    17    16    1
    29    18    17    2
    30    19    17   am
    31    19    14    1
    32    20    19    1
    33    21    20   ar
    34    21    46    1
    35    22    21   ar
    36    22    47    1
    37    23    22   ar
    38    23    48    1
    39    24    23   ar
    40    24    49    1
    41    25    24   ar
    42    25    20   ar
    43    25    50    1
    44    26    10   ar
    45    27    26   ar
    46    27     8   ar
    47    28    26    1
    48    29    28   ar
    49    29    51    1
    50    30    29   ar
    51    30    52    1
    52    31    30   ar
    53    32    31    1
    54    32    53    1
    55    32    54    1
    56    32    55    1
    57    33    31   ar
    58    33    56    1
    59    34    33   ar
    60    34    28   ar
    61    34    57    1
@<TRIPOS>MOLECULE
mol_510_akc_journalpntd0001987
>494.sdf
 46 48 0 0 0
SMALL
GASTEIGER

@<TRIPOS>ATOM
      1 C           2.8756   -1.1307    1.8441 C.3     1  UNL1       -0.0433
      2 N           4.3655   -1.0583    1.6862 N.4     1  UNL1        0.2309
      3 C           4.9643   -2.4326    1.5115 C.3     1  UNL1       -0.0433
      4 C           4.8094   -0.1288    0.5795 C.3     1  UNL1       -0.0309
      5 C           4.5344    1.3491    0.8655 C.3     1  UNL1        0.0036
      6 C           5.1894    1.9358    2.1246 C.3     1  UNL1        0.0221
      7 N           6.6544    1.8415    2.0551 N.pl3   1  UNL1       -0.2994
      8 C           7.3156    0.7061    2.5527 C.ar    1  UNL1        0.0372
      9 C           6.9887    0.2287    3.8418 C.ar    1  UNL1       -0.0401
     10 C           7.6296   -0.8688    4.4131 C.ar    1  UNL1       -0.0600
     11 C           8.6275   -1.5205    3.7071 C.ar    1  UNL1       -0.0614
     12 C           8.9821   -1.0636    2.4406 C.ar    1  UNL1       -0.0568
     13 C           8.3467    0.0489    1.8477 C.ar    1  UNL1       -0.0257
     14 C           8.8817    0.4470    0.4796 C.3     1  UNL1       -0.0219
     15 C           8.1399    1.4806   -0.3680 C.3     1  UNL1       -0.0219
     16 C           8.0581    2.8181    0.3084 C.ar    1  UNL1       -0.0257
     17 C           8.7202    3.9299   -0.2334 C.ar    1  UNL1       -0.0568
     18 C           8.6682    5.1649    0.4100 C.ar    1  UNL1       -0.0614
     19 C           7.9502    5.3010    1.5934 C.ar    1  UNL1       -0.0600
     20 C           7.2705    4.2037    2.1240 C.ar    1  UNL1       -0.0401
     21 C           7.3115    2.9526    1.4883 C.ar    1  UNL1        0.0372
     22 H           2.6510   -1.8271    2.6557 H       1  UNL1        0.0777
     23 H           2.5057   -0.1375    2.1065 H       1  UNL1        0.0777
     24 H           2.4419   -1.4763    0.9019 H       1  UNL1        0.0777
     25 H           4.7720   -0.7137    2.5655 H       1  UNL1        0.2028
     26 H           4.6290   -2.8397    0.5539 H       1  UNL1        0.0777
     27 H           6.0527   -2.3372    1.5387 H       1  UNL1        0.0777
     28 H           4.6292   -3.0578    2.3433 H       1  UNL1        0.0777
     29 H           5.8722   -0.3134    0.4192 H       1  UNL1        0.0815
     30 H           4.2864   -0.4433   -0.3311 H       1  UNL1        0.0815
     31 H           4.8726    1.9233   -0.0070 H       1  UNL1        0.0332
     32 H           3.4531    1.5172    0.9222 H       1  UNL1        0.0332
     33 H           4.8646    2.9801    2.2173 H       1  UNL1        0.0470
     34 H           4.7818    1.4405    3.0118 H       1  UNL1        0.0470
     35 H           6.2764    0.7750    4.4610 H       1  UNL1        0.0636
     36 H           7.3902   -1.1779    5.4279 H       1  UNL1        0.0618
     37 H           9.1647   -2.3534    4.1566 H       1  UNL1        0.0618
     38 H           9.7998   -1.5646    1.9196 H       1  UNL1        0.0621
     39 H           9.9151    0.7914    0.6223 H       1  UNL1        0.0317
     40 H           8.9306   -0.4689   -0.1262 H       1  UNL1        0.0317
     41 H           7.1327    1.1410   -0.6266 H       1  UNL1        0.0317
     42 H           8.6616    1.5813   -1.3277 H       1  UNL1        0.0317
     43 H           9.2942    3.8384   -1.1526 H       1  UNL1        0.0621
     44 H           9.2017    6.0172   -0.0043 H       1  UNL1        0.0618
     45 H           7.9330    6.2565    2.1119 H       1  UNL1        0.0618
     46 H           6.7438    4.3214    3.0676 H       1  UNL1        0.0636
@<TRIPOS>UNITY_ATOM_ATTR
2 1
charge 1
@<TRIPOS>BOND
     1     1    22    1
     2     1    23    1
     3     1    24    1
     4     2     1    1
     5     2    25    1
     6     3     2    1
     7     3    26    1
     8     3    27    1
     9     3    28    1
    10     4     2    1
    11     4    29    1
    12     4    30    1
    13     5     4    1
    14     5    31    1
    15     5    32    1
    16     6     5    1
    17     6    33    1
    18     6    34    1
    19     7     6    1
    20     8     7    1
    21     9     8   ar
    22     9    35    1
    23    10     9   ar
    24    10    36    1
    25    11    10   ar
    26    11    37    1
    27    12    11   ar
    28    12    38    1
    29    13    12   ar
    30    13     8   ar
    31    14    13    1
    32    14    39    1
    33    14    40    1
    34    15    14    1
    35    15    41    1
    36    15    42    1
    37    16    15    1
    38    17    16   ar
    39    17    43    1
    40    18    17   ar
    41    18    44    1
    42    19    18   ar
    43    19    45    1
    44    20    19   ar
    45    20    46    1
    46    21    20   ar
    47    21     7    1
    48    21    16   ar
@<TRIPOS>MOLECULE
mol_511_akc_jejmech201206021
>495.sdf
 86 91 0 0 0
SMALL
GASTEIGER

@<TRIPOS>ATOM
      1 C           3.6098   -4.5296    3.1502 C.3     1  UNL1        0.0336
      2 C           4.5127   -3.3365    3.0815 C.2     1  UNL1        0.3092
      3 O           5.2756   -3.0379    3.9882 O.2     1  UNL1       -0.2507
      4 O           4.3380   -2.6473    1.8776 O.3     1  UNL1       -0.4260
      5 C           5.2646   -1.6342    1.5668 C.ar    1  UNL1        0.1316
      6 C           5.7435   -1.5944    0.2672 C.ar    1  UNL1       -0.0189
      7 C           6.7543   -0.6770   -0.0753 C.ar    1  UNL1       -0.0516
      8 C           7.3680    0.1831    0.8709 C.ar    1  UNL1       -0.0061
      9 C           6.7341    0.2238    2.1288 C.ar    1  UNL1       -0.0516
     10 C           5.6860   -0.6626    2.4687 C.ar    1  UNL1       -0.0189
     11 C           8.3733    1.2532    0.3965 C.3     1  UNL1        0.1392
     12 O           8.1532    2.5044    1.1497 O.3     1  UNL1       -0.4822
     13 C           7.9777    3.5492    0.2511 C.ar    1  UNL1        0.1389
     14 C           7.2599    4.6393    0.7236 C.ar    1  UNL1        0.0235
     15 C           6.6504    5.4798   -0.2010 C.ar    1  UNL1        0.1386
     16 O           5.9744    6.5848    0.3671 O.3     1  UNL1       -0.4258
     17 C           5.3908    7.6407   -0.3335 C.2     1  UNL1        0.3092
     18 C           4.9570    8.6941    0.6454 C.3     1  UNL1        0.0336
     19 O           5.2141    7.7104   -1.5416 O.2     1  UNL1       -0.2507
     20 C           6.6850    5.1637   -1.5592 C.ar    1  UNL1        0.0232
     21 C           7.5077    4.1177   -2.0087 C.ar    1  UNL1        0.1344
     22 O           7.4051    3.7133   -3.3094 O.3     1  UNL1       -0.5058
     23 C           8.3066    3.4146   -1.1117 C.ar    1  UNL1        0.1013
     24 C           9.3383    2.3486   -1.4682 C.2     1  UNL1        0.1816
     25 O           9.6550    2.0909   -2.6228 O.2     1  UNL1       -0.2910
     26 C           9.8519    1.5313   -0.2490 C.3     1  UNL1        0.0953
     27 C          11.2555    0.8953   -0.5074 C.ar    1  UNL1        0.0525
     28 C          12.3875    1.7314   -0.8159 C.ar    1  UNL1        0.1502
     29 O          12.4451    3.1136   -0.5731 O.2     1  UNL1       -0.4541
     30 C          13.7439    3.7312   -0.5967 C.ar    1  UNL1        0.1394
     31 C          14.8211    3.2041   -1.1931 C.ar    1  UNL1        0.0288
     32 C          14.4840    2.0811   -2.0219 C.ar    1  UNL1        0.1966
     33 O          14.9555    1.9009   -3.1325 O.2     1  UNL1       -0.2869
     34 C          13.5554    1.1770   -1.3835 C.ar    1  UNL1        0.1058
     35 C          13.8673   -0.1558   -1.3256 C.ar    1  UNL1        0.1347
     36 O          15.0739   -0.6612   -1.7027 O.3     1  UNL1       -0.5058
     37 C          12.8859   -0.9886   -0.8492 C.ar    1  UNL1        0.0235
     38 C          11.5841   -0.4746   -0.5817 C.ar    1  UNL1        0.1426
     39 O          10.6121   -1.4403   -0.8927 O.3     1  UNL1       -0.4255
     40 C           9.7085   -2.0112   -0.0351 C.2     1  UNL1        0.3092
     41 C           8.9215   -2.9610   -0.8956 C.3     1  UNL1        0.0336
     42 O           9.5895   -1.7714    1.1629 O.2     1  UNL1       -0.2507
     43 C          13.8324    5.1547   -0.2235 C.ar    1  UNL1        0.0211
     44 C          12.9379    5.6544    0.7160 C.ar    1  UNL1       -0.0474
     45 C          12.6358    7.0075    0.7032 C.ar    1  UNL1       -0.0149
     46 C          13.2120    7.8423   -0.2580 C.ar    1  UNL1        0.1738
     47 O          12.5948    9.0394   -0.6810 O.3     1  UNL1       -0.4223
     48 C          11.1949    9.0607   -0.7337 C.2     1  UNL1        0.3093
     49 C          10.7103   10.0626   -1.7338 C.3     1  UNL1        0.0336
     50 O          10.4137    8.3657   -0.0934 O.2     1  UNL1       -0.2507
     51 C          14.3400    7.4153   -0.9684 C.ar    1  UNL1        0.1744
     52 O          15.0357    8.3777   -1.7149 O.3     1  UNL1       -0.4222
     53 C          16.4261    8.2954   -2.0004 C.2     1  UNL1        0.3093
     54 C          16.8959    9.6242   -2.5437 C.3     1  UNL1        0.0336
     55 O          17.1448    7.3444   -1.8069 O.2     1  UNL1       -0.2507
     56 C          14.6387    6.0595   -0.9637 C.ar    1  UNL1       -0.0049
     57 H           4.1487   -5.3467    3.6460 H       1  UNL1        0.0342
     58 H           2.7109   -4.2880    3.7242 H       1  UNL1        0.0342
     59 H           3.3354   -4.8803    2.1524 H       1  UNL1        0.0342
     60 H           5.3470   -2.2757   -0.4852 H       1  UNL1        0.0654
     61 H           7.0490   -0.6242   -1.1239 H       1  UNL1        0.0623
     62 H           7.0021    0.9848    2.8590 H       1  UNL1        0.0623
     63 H           5.2117   -0.5871    3.4451 H       1  UNL1        0.0654
     64 H           7.7365    1.3649   -0.4944 H       1  UNL1        0.0795
     65 H           7.1269    4.7916    1.7899 H       1  UNL1        0.0691
     66 H           4.9761    9.6700    0.1521 H       1  UNL1        0.0342
     67 H           3.9485    8.4765    1.0029 H       1  UNL1        0.0342
     68 H           5.6521    8.7397    1.4890 H       1  UNL1        0.0342
     69 H           6.0799    5.7105   -2.2740 H       1  UNL1        0.0691
     70 H           6.5409    3.9922   -3.6605 H       1  UNL1        0.2922
     71 H          10.2310    2.2945    0.4484 H       1  UNL1        0.0472
     72 H          15.8039    3.6374   -1.3048 H       1  UNL1        0.0693
     73 H          15.5856    0.0268   -2.1804 H       1  UNL1        0.2922
     74 H          13.0943   -2.0575   -0.8299 H       1  UNL1        0.0691
     75 H           7.8669   -2.7187   -0.9094 H       1  UNL1        0.0342
     76 H           9.2468   -2.8572   -1.9449 H       1  UNL1        0.0342
     77 H           9.0849   -3.9840   -0.5857 H       1  UNL1        0.0342
     78 H          12.3830    4.9847    1.3690 H       1  UNL1        0.0626
     79 H          11.8482    7.3615    1.3621 H       1  UNL1        0.0656
     80 H          10.1769    9.5289   -2.5272 H       1  UNL1        0.0342
     81 H          10.0332   10.7593   -1.2345 H       1  UNL1        0.0342
     82 H          11.5357   10.6202   -2.1793 H       1  UNL1        0.0342
     83 H          17.9819    9.5957   -2.6948 H       1  UNL1        0.0342
     84 H          16.4179    9.8478   -3.5020 H       1  UNL1        0.0342
     85 H          16.6752   10.4102   -1.8151 H       1  UNL1        0.0342
     86 H          15.4212    5.7010   -1.6253 H       1  UNL1        0.0663
@<TRIPOS>BOND
     1     1    57    1
     2     1    58    1
     3     1    59    1
     4     2     1    1
     5     3     2    2
     6     4     2    1
     7     5     4    1
     8     6     5   ar
     9     6    60    1
    10     7     6   ar
    11     7    61    1
    12     8     7   ar
    13     9     8   ar
    14     9    62    1
    15    10     9   ar
    16    10     5   ar
    17    10    63    1
    18    11     8    1
    19    11    64    1
    20    12    11    1
    21    13    12    1
    22    14    13   ar
    23    14    65    1
    24    15    14   ar
    25    16    15    1
    26    17    16    1
    27    18    17    1
    28    18    66    1
    29    18    67    1
    30    18    68    1
    31    19    17    2
    32    20    15   ar
    33    20    69    1
    34    21    20   ar
    35    22    21    1
    36    22    70    1
    37    23    21   ar
    38    23    13   ar
    39    24    23    1
    40    25    24    2
    41    26    24    1
    42    26    11    1
    43    26    71    1
    44    27    26    1
    45    28    27   ar
    46    29    28   ar
    47    30    29   ar
    48    31    30   ar
    49    31    72    1
    50    32    31   ar
    51    33    32    2
    52    34    32   ar
    53    34    28   ar
    54    35    34   ar
    55    36    35    1
    56    36    73    1
    57    37    35   ar
    58    37    74    1
    59    38    37   ar
    60    38    27   ar
    61    39    38    1
    62    40    39    1
    63    41    40    1
    64    41    75    1
    65    41    76    1
    66    41    77    1
    67    42    40    2
    68    43    30    1
    69    44    43   ar
    70    44    78    1
    71    45    44   ar
    72    45    79    1
    73    46    45   ar
    74    47    46    1
    75    48    47    1
    76    49    48    1
    77    49    80    1
    78    49    81    1
    79    49    82    1
    80    50    48    2
    81    51    46   ar
    82    52    51    1
    83    53    52    1
    84    54    53    1
    85    54    83    1
    86    54    84    1
    87    54    85    1
    88    55    53    2
    89    56    51   ar
    90    56    43   ar
    91    56    86    1
@<TRIPOS>MOLECULE
mol_512_akc_jejmech201210048
>496.sdf
 50 53 0 0 0
SMALL
GASTEIGER

@<TRIPOS>ATOM
      1 C           1.0932   -0.0341   -0.1548 C.3     1  UNL1       -0.0499
      2 C           2.6101   -0.0079    0.0995 C.3     1  UNL1        0.0598
      3 C           3.3384   -0.1435   -1.2433 C.3     1  UNL1       -0.0499
      4 C           2.9834    1.3125    0.7839 C.3     1  UNL1       -0.0499
      5 C           2.9675   -1.1682    1.0342 C.2     1  UNL1        0.3178
      6 O           2.1412   -1.8727    1.5888 O.2     1  UNL1       -0.2498
      7 O           4.3577   -1.2578    1.1917 O.3     1  UNL1       -0.4255
      8 C           4.9423   -2.2378    2.0206 C.ar    1  UNL1        0.1317
      9 C           4.3773   -3.4853    2.2531 C.ar    1  UNL1       -0.0186
     10 C           5.0159   -4.3864    3.1101 C.ar    1  UNL1       -0.0491
     11 C           6.2731   -4.1067    3.6695 C.ar    1  UNL1        0.0012
     12 C           6.8573   -2.8696    3.3578 C.ar    1  UNL1       -0.0491
     13 C           6.1830   -1.9248    2.5696 C.ar    1  UNL1       -0.0186
     14 C           6.9470   -5.1188    4.5120 C.ar    1  UNL1        0.0810
     15 C           7.0022   -6.5160    4.4089 C.ar    1  UNL1        0.0977
     16 N           7.6506   -7.0819    5.4824 N.ar    1  UNL1       -0.2272
     17 C           8.0579   -6.0783    6.2174 C.ar    1  UNL1        0.1387
     18 C           8.8189   -6.0760    7.4212 C.ar    1  UNL1       -0.0188
     19 C           9.1744   -4.9103    7.9906 C.ar    1  UNL1       -0.0569
     20 C           8.7627   -3.6424    7.4194 C.ar    1  UNL1       -0.0450
     21 C           8.0046   -3.6396    6.3096 C.ar    1  UNL1        0.0118
     22 N           7.6668   -4.8499    5.6842 N.ar    1  UNL1       -0.2987
     23 C           6.4644   -7.3735    3.3551 C.ar    1  UNL1        0.0025
     24 C           6.4817   -7.0004    2.0055 C.ar    1  UNL1       -0.0525
     25 C           5.9337   -7.8335    1.0257 C.ar    1  UNL1       -0.0611
     26 C           5.3991   -9.0702    1.3792 C.ar    1  UNL1       -0.0617
     27 C           5.4149   -9.4760    2.7119 C.ar    1  UNL1       -0.0611
     28 C           5.9413   -8.6314    3.6931 C.ar    1  UNL1       -0.0525
     29 H           0.7792    0.7949   -0.7996 H       1  UNL1        0.0240
     30 H           0.7900   -0.9698   -0.6394 H       1  UNL1        0.0240
     31 H           0.5303    0.0427    0.7831 H       1  UNL1        0.0240
     32 H           3.0323    0.6464   -1.9391 H       1  UNL1        0.0240
     33 H           4.4252   -0.0747   -1.1253 H       1  UNL1        0.0240
     34 H           3.1218   -1.1093   -1.7137 H       1  UNL1        0.0240
     35 H           2.5217    1.3860    1.7755 H       1  UNL1        0.0240
     36 H           4.0670    1.3997    0.9239 H       1  UNL1        0.0240
     37 H           2.6534    2.1740    0.1925 H       1  UNL1        0.0240
     38 H           3.4442   -3.7874    1.7899 H       1  UNL1        0.0654
     39 H           4.5177   -5.3345    3.3079 H       1  UNL1        0.0625
     40 H           7.8539   -2.6166    3.7093 H       1  UNL1        0.0625
     41 H           6.6396   -0.9572    2.3778 H       1  UNL1        0.0654
     42 H           9.1040   -7.0290    7.8517 H       1  UNL1        0.0654
     43 H           9.7630   -4.8945    8.9031 H       1  UNL1        0.0619
     44 H           9.0644   -2.7232    7.9105 H       1  UNL1        0.0632
     45 H           7.6507   -2.7162    5.8777 H       1  UNL1        0.0813
     46 H           6.9182   -6.0531    1.6971 H       1  UNL1        0.0624
     47 H           5.9283   -7.5148   -0.0135 H       1  UNL1        0.0618
     48 H           4.9818   -9.7215    0.6158 H       1  UNL1        0.0618
     49 H           5.0178  -10.4487    2.9898 H       1  UNL1        0.0618
     50 H           5.9476   -8.9615    4.7300 H       1  UNL1        0.0624
@<TRIPOS>BOND
     1     1    29    1
     2     1    30    1
     3     1    31    1
     4     2     1    1
     5     3     2    1
     6     3    32    1
     7     3    33    1
     8     3    34    1
     9     4     2    1
    10     4    35    1
    11     4    36    1
    12     4    37    1
    13     5     2    1
    14     6     5    2
    15     7     5    1
    16     8     7    1
    17     9     8   ar
    18     9    38    1
    19    10     9   ar
    20    10    39    1
    21    11    10   ar
    22    12    11   ar
    23    12    40    1
    24    13    12   ar
    25    13     8   ar
    26    13    41    1
    27    14    11    1
    28    15    14   ar
    29    16    15   ar
    30    17    16   ar
    31    18    17   ar
    32    18    42    1
    33    19    18   ar
    34    19    43    1
    35    20    19   ar
    36    20    44    1
    37    21    20   ar
    38    21    45    1
    39    22    21   ar
    40    22    14   ar
    41    22    17   ar
    42    23    15    1
    43    24    23   ar
    44    24    46    1
    45    25    24   ar
    46    25    47    1
    47    26    25   ar
    48    26    48    1
    49    27    26   ar
    50    27    49    1
    51    28    27   ar
    52    28    23   ar
    53    28    50    1
@<TRIPOS>MOLECULE
mol_513_akc_s00044_011_9886_8
>497.sdf
 52 55 0 0 0
SMALL
GASTEIGER

@<TRIPOS>ATOM
      1 C           3.6611   -7.7720   -2.4755 C.3     1  UNL1       -0.0223
      2 C           2.9655   -7.1824   -3.6603 C.ar    1  UNL1        0.0391
      3 N           1.8825   -6.4272   -3.3791 N.ar    1  UNL1       -0.2482
      4 C           1.1471   -5.8502   -4.3582 C.ar    1  UNL1        0.1127
      5 C           0.0149   -5.0612   -4.0829 C.ar    1  UNL1        0.1463
      6 O          -0.5048   -4.7488   -2.8407 O.3     1  UNL1       -0.4897
      7 C           0.2027   -5.2622   -1.7065 C.3     1  UNL1        0.0928
      8 C          -0.4542   -4.7977   -0.4160 C.3     1  UNL1        0.0157
      9 C          -1.8897   -5.2849   -0.2478 C.3     1  UNL1        0.0928
     10 O          -1.9208   -6.7112   -0.2964 O.3     1  UNL1       -0.4881
     11 C          -3.1313   -7.3369   -0.1460 C.ar    1  UNL1        0.1639
     12 C          -3.2389   -8.5358   -0.8671 C.ar    1  UNL1        0.0021
     13 C          -4.3753   -9.3365   -0.7501 C.ar    1  UNL1        0.0447
     14 CL         -4.5169  -10.7787   -1.6768 Cl      1  UNL1       -0.0834
     15 C          -5.3947   -8.9874    0.1273 C.ar    1  UNL1       -0.0397
     16 C          -5.2836   -7.8161    0.8708 C.ar    1  UNL1       -0.0143
     17 C          -4.1856   -6.9549    0.6968 C.ar    1  UNL1        0.1700
     18 O          -4.0957   -5.7907    1.4229 O.3     1  UNL1       -0.4509
     19 C          -5.2245   -5.0266    1.6336 C.ar    1  UNL1        0.1469
     20 C          -6.2603   -4.9175    0.6953 C.ar    1  UNL1       -0.0165
     21 C          -7.4063   -4.1821    1.0009 C.ar    1  UNL1       -0.0398
     22 C          -7.4904   -3.5048    2.2159 C.ar    1  UNL1        0.0426
     23 CL         -8.9063   -2.6030    2.5895 Cl      1  UNL1       -0.0835
     24 C          -6.4377   -3.5473    3.1270 C.ar    1  UNL1       -0.0215
     25 C          -5.3042   -4.3069    2.8333 C.ar    1  UNL1        0.0845
     26 CL         -4.0204   -4.3440    3.9885 Cl      1  UNL1       -0.0797
     27 C          -0.7315   -4.4882   -5.1301 C.ar    1  UNL1       -0.0178
     28 C          -0.3561   -4.6866   -6.4534 C.ar    1  UNL1       -0.0576
     29 C           0.7663   -5.4551   -6.7408 C.ar    1  UNL1       -0.0523
     30 C           1.5192   -6.0370   -5.7047 C.ar    1  UNL1        0.0040
     31 C           2.6536   -6.8148   -5.9874 C.ar    1  UNL1       -0.0508
     32 C           3.3873   -7.3966   -4.9557 C.ar    1  UNL1       -0.0401
     33 H           3.9722   -6.9726   -1.7947 H       1  UNL1        0.0292
     34 H           2.9736   -8.4344   -1.9379 H       1  UNL1        0.0292
     35 H           4.5448   -8.3474   -2.7602 H       1  UNL1        0.0292
     36 H           0.2023   -6.3570   -1.7207 H       1  UNL1        0.0697
     37 H           1.2238   -4.8664   -1.6991 H       1  UNL1        0.0697
     38 H           0.1508   -5.1756    0.4183 H       1  UNL1        0.0331
     39 H          -0.4442   -3.7033   -0.3692 H       1  UNL1        0.0331
     40 H          -2.1988   -4.9165    0.7307 H       1  UNL1        0.0697
     41 H          -2.5363   -4.8683   -1.0278 H       1  UNL1        0.0697
     42 H          -2.4273   -8.8393   -1.5245 H       1  UNL1        0.0670
     43 H          -6.2707   -9.6191    0.2464 H       1  UNL1        0.0633
     44 H          -6.0656   -7.5781    1.5877 H       1  UNL1        0.0656
     45 H          -6.2008   -5.4202   -0.2674 H       1  UNL1        0.0655
     46 H          -8.2281   -4.1461    0.2897 H       1  UNL1        0.0633
     47 H          -6.5014   -3.0005    4.0632 H       1  UNL1        0.0648
     48 H          -1.6050   -3.8850   -4.8990 H       1  UNL1        0.0655
     49 H          -0.9362   -4.2406   -7.2565 H       1  UNL1        0.0619
     50 H           1.0531   -5.6023   -7.7799 H       1  UNL1        0.0624
     51 H           2.9726   -6.9754   -7.0144 H       1  UNL1        0.0625
     52 H           4.2597   -8.0005   -5.1701 H       1  UNL1        0.0636
@<TRIPOS>BOND
     1     1    33    1
     2     1    34    1
     3     1    35    1
     4     2     1    1
     5     3     2   ar
     6     4     3   ar
     7     5     4   ar
     8     6     5    1
     9     7     6    1
    10     7    36    1
    11     7    37    1
    12     8     7    1
    13     8    38    1
    14     8    39    1
    15     9     8    1
    16     9    40    1
    17     9    41    1
    18    10     9    1
    19    11    10    1
    20    12    11   ar
    21    12    42    1
    22    13    12   ar
    23    14    13    1
    24    15    13   ar
    25    15    43    1
    26    16    15   ar
    27    16    44    1
    28    17    16   ar
    29    17    11   ar
    30    18    17    1
    31    19    18    1
    32    20    19   ar
    33    20    45    1
    34    21    20   ar
    35    21    46    1
    36    22    21   ar
    37    23    22    1
    38    24    22   ar
    39    24    47    1
    40    25    24   ar
    41    25    19   ar
    42    26    25    1
    43    27     5   ar
    44    27    48    1
    45    28    27   ar
    46    28    49    1
    47    29    28   ar
    48    29    50    1
    49    30    29   ar
    50    30     4   ar
    51    31    30   ar
    52    31    51    1
    53    32    31   ar
    54    32     2   ar
    55    32    52    1
@<TRIPOS>MOLECULE
mol_514_akc_s0100_736x2012001100015
>498.sdf
 32 34 0 0 0
SMALL
GASTEIGER

@<TRIPOS>ATOM
      1 O          -3.9107    0.8099   -0.0275 O.3     1  UNL1       -0.5065
      2 C          -2.6068    0.4117   -0.0113 C.ar    1  UNL1        0.1239
      3 C          -1.6293    1.3992    0.0053 C.ar    1  UNL1        0.0231
      4 C          -0.2798    1.0376    0.0189 C.ar    1  UNL1        0.1465
      5 C           0.0936   -0.3083    0.0297 C.ar    1  UNL1        0.1092
      6 C          -0.9082   -1.2924    0.0052 C.ar    1  UNL1        0.1348
      7 O          -0.5853   -2.6195   -0.0091 O.3     1  UNL1       -0.5058
      8 C          -2.2601   -0.9349   -0.0158 C.ar    1  UNL1        0.0223
      9 C           1.5408   -0.6282    0.0692 C.ar    1  UNL1        0.2379
     10 O           1.9692   -1.7731    0.1502 O.2     1  UNL1       -0.2830
     11 C           2.4838    0.5291    0.0054 C.ar    1  UNL1        0.2082
     12 O           3.8406    0.2459   -0.0231 O.3     1  UNL1       -0.5007
     13 C           1.9668    1.7717   -0.0270 C.ar    1  UNL1        0.1807
     14 O           0.6213    2.0732    0.0129 O.2     1  UNL1       -0.4507
     15 C           2.8280    2.9574   -0.1367 C.ar    1  UNL1        0.0247
     16 C           3.3351    3.5815    1.0131 C.ar    1  UNL1       -0.0057
     17 C           4.2285    4.6390    0.8723 C.ar    1  UNL1        0.1589
     18 O           4.7743    5.2757    1.9527 O.3     1  UNL1       -0.5033
     19 C           4.6137    5.0752   -0.3937 C.ar    1  UNL1        0.1583
     20 O           5.5111    6.0958   -0.5213 O.3     1  UNL1       -0.5033
     21 C           4.1065    4.4779   -1.5372 C.ar    1  UNL1       -0.0159
     22 C           3.2101    3.4159   -1.4087 C.ar    1  UNL1       -0.0473
     23 H          -4.4882    0.0296   -0.0461 H       1  UNL1        0.2921
     24 H          -1.9181    2.4470    0.0040 H       1  UNL1        0.0691
     25 H          -1.3797   -3.1746   -0.0217 H       1  UNL1        0.2922
     26 H          -3.0298   -1.6990   -0.0358 H       1  UNL1        0.0691
     27 H           4.3466    1.0725   -0.0789 H       1  UNL1        0.2924
     28 H           3.0425    3.2266    1.9969 H       1  UNL1        0.0662
     29 H           4.3967    4.8907    2.7624 H       1  UNL1        0.2923
     30 H           5.7366    6.3455    0.3969 H       1  UNL1        0.2923
     31 H           4.4140    4.8277   -2.5184 H       1  UNL1        0.0655
     32 H           2.8232    2.9376   -2.3068 H       1  UNL1        0.0626
@<TRIPOS>BOND
     1     1    23    1
     2     2     1    1
     3     3     2   ar
     4     3    24    1
     5     4     3   ar
     6     5     4   ar
     7     6     5   ar
     8     7     6    1
     9     7    25    1
    10     8     6   ar
    11     8     2   ar
    12     8    26    1
    13     9     5   ar
    14    10     9    2
    15    11     9   ar
    16    12    11    1
    17    12    27    1
    18    13    11   ar
    19    14    13   ar
    20    14     4   ar
    21    15    13    1
    22    16    15   ar
    23    16    28    1
    24    17    16   ar
    25    18    17    1
    26    18    29    1
    27    19    17   ar
    28    20    19    1
    29    20    30    1
    30    21    19   ar
    31    21    31    1
    32    22    21   ar
    33    22    15   ar
    34    22    32    1
@<TRIPOS>MOLECULE
mol_515_akc_jexppara201208019
>499.sdf
 41 41 0 0 0
SMALL
GASTEIGER

@<TRIPOS>ATOM
      1 C           2.8318   -2.9545   -2.0510 C.3     1  UNL1       -0.0653
      2 C           3.7154   -1.9404   -1.3439 C.3     1  UNL1       -0.0559
      3 C           4.2533   -0.8971   -2.3212 C.3     1  UNL1       -0.0533
      4 C           5.1408    0.1214   -1.6081 C.3     1  UNL1       -0.0528
      5 C           5.6808    1.1651   -2.5860 C.3     1  UNL1       -0.0496
      6 C           6.5649    2.1818   -1.8648 C.3     1  UNL1       -0.0348
      7 C           7.1012    3.2072   -2.8201 C.2     1  UNL1       -0.0879
      8 C           8.4083    3.4051   -3.0439 C.2     1  UNL1       -0.0876
      9 C           8.9173    4.4448   -4.0031 C.3     1  UNL1       -0.0308
     10 C          10.4465    4.4613   -4.0648 C.3     1  UNL1       -0.0242
     11 C          10.9618    5.5016   -5.0271 C.ar    1  UNL1       -0.0468
     12 C          11.1877    6.8171   -4.5970 C.ar    1  UNL1       -0.0551
     13 C          11.6875    7.7749   -5.4818 C.ar    1  UNL1       -0.0199
     14 C          11.9530    7.4163   -6.7992 C.ar    1  UNL1        0.1169
     15 O          12.4652    8.3133   -7.6890 O.3     1  UNL1       -0.5068
     16 C          11.7067    6.1255   -7.2497 C.ar    1  UNL1       -0.0199
     17 C          11.2082    5.1682   -6.3657 C.ar    1  UNL1       -0.0551
     18 H           2.4555   -3.6933   -1.3368 H       1  UNL1        0.0230
     19 H           1.9720   -2.4649   -2.5196 H       1  UNL1        0.0230
     20 H           3.3906   -3.4856   -2.8282 H       1  UNL1        0.0230
     21 H           3.1381   -1.4478   -0.5528 H       1  UNL1        0.0263
     22 H           4.5488   -2.4630   -0.8601 H       1  UNL1        0.0263
     23 H           4.8272   -1.3949   -3.1123 H       1  UNL1        0.0265
     24 H           3.4162   -0.3800   -2.8058 H       1  UNL1        0.0265
     25 H           4.5673    0.6208   -0.8178 H       1  UNL1        0.0265
     26 H           5.9780   -0.3953   -1.1234 H       1  UNL1        0.0265
     27 H           6.2552    0.6657   -3.3766 H       1  UNL1        0.0268
     28 H           4.8433    1.6791   -3.0743 H       1  UNL1        0.0268
     29 H           5.9843    2.6977   -1.0907 H       1  UNL1        0.0307
     30 H           7.3845    1.6608   -1.3546 H       1  UNL1        0.0307
     31 H           6.3673    3.8174   -3.3442 H       1  UNL1        0.0569
     32 H           9.1394    2.7960   -2.5166 H       1  UNL1        0.0569
     33 H           8.5118    4.2432   -5.0039 H       1  UNL1        0.0310
     34 H           8.5514    5.4317   -3.6917 H       1  UNL1        0.0310
     35 H          10.8665    4.6534   -3.0682 H       1  UNL1        0.0316
     36 H          10.8259    3.4743   -4.3612 H       1  UNL1        0.0316
     37 H          10.9811    7.0996   -3.5671 H       1  UNL1        0.0621
     38 H          11.8630    8.7852   -5.1262 H       1  UNL1        0.0654
     39 H          12.6519    9.1409   -7.2174 H       1  UNL1        0.2921
     40 H          11.9091    5.8624   -8.2838 H       1  UNL1        0.0654
     41 H          11.0211    4.1592   -6.7262 H       1  UNL1        0.0621
@<TRIPOS>BOND
     1     1    18    1
     2     1    19    1
     3     1    20    1
     4     2     1    1
     5     2    21    1
     6     2    22    1
     7     3     2    1
     8     3    23    1
     9     3    24    1
    10     4     3    1
    11     4    25    1
    12     4    26    1
    13     5     4    1
    14     5    27    1
    15     5    28    1
    16     6     5    1
    17     6    29    1
    18     6    30    1
    19     7     6    1
    20     7    31    1
    21     8     7    2
    22     8    32    1
    23     9     8    1
    24     9    33    1
    25     9    34    1
    26    10     9    1
    27    10    35    1
    28    10    36    1
    29    11    10    1
    30    12    11   ar
    31    12    37    1
    32    13    12   ar
    33    13    38    1
    34    14    13   ar
    35    15    14    1
    36    15    39    1
    37    16    14   ar
    38    16    40    1
    39    17    16   ar
    40    17    11   ar
    41    17    41    1
@<TRIPOS>MOLECULE
mol_516_akc_cbdd12017
>500.sdf
 92 93 0 0 0
SMALL
GASTEIGER

@<TRIPOS>ATOM
      1 C           0.4174   -3.6505    0.6094 C.3     1  UNL1        0.0817
      2 O           1.5910   -2.9978    0.1213 O.3     1  UNL1       -0.4679
      3 C           1.4995   -1.6466    0.0029 C.2     1  UNL1        0.3083
      4 O           0.5169   -0.9852    0.3084 O.2     1  UNL1       -0.2508
      5 C           2.7597   -1.0194   -0.5615 C.3     1  UNL1        0.0608
      6 C           3.8613   -2.0270   -0.8779 C.3     1  UNL1        0.0279
      7 N           5.0364   -1.5274   -1.6092 N.am    1  UNL1       -0.2669
      8 C           5.6480   -0.2494   -1.2469 C.3     1  UNL1        0.0178
      9 C           6.5839   -0.3426   -0.0392 C.3     1  UNL1       -0.0370
     10 C           7.2248    1.0013    0.3124 C.3     1  UNL1       -0.0516
     11 C           6.1935    2.0618    0.7018 C.3     1  UNL1       -0.0530
     12 C           6.8909    3.3455    1.1168 C.3     1  UNL1       -0.0531
     13 C           5.8936    4.4436    1.4798 C.3     1  UNL1       -0.0530
     14 C           6.6103    5.7507    1.8202 C.3     1  UNL1       -0.0510
     15 C           7.4894    6.2797    0.6786 C.3     1  UNL1       -0.0295
     16 C           6.6758    6.6830   -0.5539 C.3     1  UNL1        0.0477
     17 O           5.6711    7.6516   -0.2388 O.3     1  UNL1       -0.3797
     18 C           6.2374    8.8788    0.2012 C.3     1  UNL1        0.0480
     19 C           5.1165    9.8278    0.5656 C.3     1  UNL1       -0.0253
     20 C           5.7048   11.1600    1.0374 C.3     1  UNL1       -0.0200
     21 C           4.6189   12.1263    1.4240 C.ar    1  UNL1        0.0168
     22 C           4.5360   12.6340    2.7130 C.ar    1  UNL1       -0.0474
     23 C           3.4557   13.4298    3.0522 C.ar    1  UNL1        0.0028
     24 C           2.4488   13.6618    2.1192 C.ar    1  UNL1        0.1774
     25 N           2.5371   13.1891    0.8454 N.ar    1  UNL1       -0.1640
     26 C           3.6454   12.4873    0.4927 C.ar    1  UNL1        0.1805
     27 C           1.4272   13.2955   -0.1124 C.ar    1  UNL1        0.2435
     28 C           0.5259   14.3667   -0.1901 C.ar    1  UNL1        0.1994
     29 C          -0.6005   14.3413   -1.0329 C.ar    1  UNL1        0.0053
     30 C          -0.8183   13.2183   -1.8385 C.ar    1  UNL1        0.1288
     31 C           0.0874   12.1509   -1.8166 C.ar    1  UNL1       -0.0251
     32 C           1.1938   12.1870   -0.9544 C.ar    1  UNL1        0.0147
     33 N          -2.0111   13.1471   -2.6966 N.pl3   1  UNL1        0.0565
     34 O          -2.8080   14.0892   -2.6314 O.2     1  UNL1       -0.1261
     35 O          -2.1348   12.1479   -3.4138 O.2     1  UNL1       -0.1261
     36 N           0.7619   15.5867    0.5341 N.pl3   1  UNL1        0.0630
     37 O           1.8586   16.1268    0.3603 O.2     1  UNL1       -0.1259
     38 O          -0.1026   15.9217    1.3467 O.2     1  UNL1       -0.1259
     39 C           5.7138   -2.4664   -2.3766 C.2     1  UNL1        0.4034
     40 O           5.2609   -3.5905   -2.5888 O.2     1  UNL1       -0.2262
     41 O           6.9133   -2.0358   -2.8621 O.3     1  UNL1       -0.4445
     42 C           7.6960   -2.9325   -3.6965 C.3     1  UNL1        0.1068
     43 C           6.9568   -3.2344   -5.0079 C.3     1  UNL1       -0.0253
     44 C           8.9923   -2.1809   -4.0428 C.3     1  UNL1       -0.0253
     45 C           8.0903   -4.2113   -2.9416 C.3     1  UNL1       -0.0253
     46 H           0.1872   -3.3168    1.6262 H       1  UNL1        0.0661
     47 H          -0.4297   -3.4726   -0.0606 H       1  UNL1        0.0661
     48 H           0.6153   -4.7257    0.6359 H       1  UNL1        0.0661
     49 H           2.4782   -0.4848   -1.4778 H       1  UNL1        0.0393
     50 H           3.1177   -0.2926    0.1775 H       1  UNL1        0.0393
     51 H           4.2310   -2.4888    0.0466 H       1  UNL1        0.0471
     52 H           3.4178   -2.8337   -1.4731 H       1  UNL1        0.0471
     53 H           6.2104    0.1299   -2.1078 H       1  UNL1        0.0465
     54 H           4.8435    0.4696   -1.0736 H       1  UNL1        0.0465
     55 H           6.0408   -0.7230    0.8336 H       1  UNL1        0.0280
     56 H           7.3851   -1.0623   -0.2465 H       1  UNL1        0.0280
     57 H           7.9238    0.8535    1.1453 H       1  UNL1        0.0266
     58 H           7.8232    1.3596   -0.5357 H       1  UNL1        0.0266
     59 H           5.5431    2.2869   -0.1506 H       1  UNL1        0.0265
     60 H           5.5602    1.6953    1.5166 H       1  UNL1        0.0265
     61 H           7.5570    3.1624    1.9681 H       1  UNL1        0.0265
     62 H           7.5169    3.6592    0.2761 H       1  UNL1        0.0265
     63 H           5.1853    4.6027    0.6582 H       1  UNL1        0.0265
     64 H           5.2948    4.1286    2.3430 H       1  UNL1        0.0265
     65 H           5.8625    6.5026    2.1025 H       1  UNL1        0.0266
     66 H           7.2371    5.5961    2.7063 H       1  UNL1        0.0266
     67 H           8.0593    7.1335    1.0579 H       1  UNL1        0.0287
     68 H           8.2553    5.5551    0.3897 H       1  UNL1        0.0287
     69 H           7.3287    7.0764   -1.3408 H       1  UNL1        0.0560
     70 H           6.1659    5.8115   -0.9791 H       1  UNL1        0.0560
     71 H           6.8421    8.7290    1.0984 H       1  UNL1        0.0560
     72 H           6.8620    9.2981   -0.5938 H       1  UNL1        0.0560
     73 H           4.4528    9.9505   -0.2987 H       1  UNL1        0.0290
     74 H           4.4939    9.3784    1.3520 H       1  UNL1        0.0290
     75 H           6.3671   10.9771    1.8935 H       1  UNL1        0.0316
     76 H           6.3217   11.6070    0.2493 H       1  UNL1        0.0316
     77 H           5.2919   12.3975    3.4622 H       1  UNL1        0.0624
     78 H           3.3701   13.8300    4.0611 H       1  UNL1        0.0677
     79 H           1.5540   14.1835    2.4397 H       1  UNL1        0.1381
     80 H           3.7471   12.1744   -0.5440 H       1  UNL1        0.1384
     81 H          -1.2890   15.1878   -1.0592 H       1  UNL1        0.0665
     82 H          -0.0668   11.2706   -2.4446 H       1  UNL1        0.0642
     83 H           1.8187   11.2948   -0.9378 H       1  UNL1        0.0685
     84 H           6.7060   -2.3043   -5.5311 H       1  UNL1        0.0268
     85 H           7.5639   -3.8553   -5.6745 H       1  UNL1        0.0268
     86 H           6.0114   -3.7585   -4.8444 H       1  UNL1        0.0268
     87 H           9.5462   -1.9133   -3.1358 H       1  UNL1        0.0268
     88 H           9.6477   -2.7892   -4.6772 H       1  UNL1        0.0268
     89 H           8.7792   -1.2436   -4.5683 H       1  UNL1        0.0268
     90 H           8.6072   -3.9635   -2.0074 H       1  UNL1        0.0268
     91 H           7.2287   -4.8238   -2.6648 H       1  UNL1        0.0268
     92 H           8.7494   -4.8421   -3.5473 H       1  UNL1        0.0268
@<TRIPOS>UNITY_ATOM_ATTR
25 1
charge 1
@<TRIPOS>BOND
     1     1    46    1
     2     1    47    1
     3     1    48    1
     4     2     1    1
     5     3     2    1
     6     4     3    2
     7     5     3    1
     8     5    49    1
     9     5    50    1
    10     6     5    1
    11     6    51    1
    12     6    52    1
    13     7     6    1
    14     8     7    1
    15     8    53    1
    16     8    54    1
    17     9     8    1
    18     9    55    1
    19     9    56    1
    20    10     9    1
    21    10    57    1
    22    10    58    1
    23    11    10    1
    24    11    59    1
    25    11    60    1
    26    12    11    1
    27    12    61    1
    28    12    62    1
    29    13    12    1
    30    13    63    1
    31    13    64    1
    32    14    13    1
    33    14    65    1
    34    14    66    1
    35    15    14    1
    36    15    67    1
    37    15    68    1
    38    16    15    1
    39    16    69    1
    40    16    70    1
    41    17    16    1
    42    18    17    1
    43    18    71    1
    44    18    72    1
    45    19    18    1
    46    19    73    1
    47    19    74    1
    48    20    19    1
    49    20    75    1
    50    20    76    1
    51    21    20    1
    52    22    21   ar
    53    22    77    1
    54    23    22   ar
    55    23    78    1
    56    24    23   ar
    57    24    79    1
    58    25    24   ar
    59    26    25   ar
    60    26    21   ar
    61    26    80    1
    62    27    25    1
    63    28    27   ar
    64    29    28   ar
    65    29    81    1
    66    30    29   ar
    67    31    30   ar
    68    31    82    1
    69    32    31   ar
    70    32    27   ar
    71    32    83    1
    72    33    30    1
    73    34    33    2
    74    35    33    2
    75    36    28    1
    76    37    36    2
    77    38    36    2
    78    39     7   am
    79    40    39    2
    80    41    39    1
    81    42    41    1
    82    43    42    1
    83    43    84    1
    84    43    85    1
    85    43    86    1
    86    44    42    1
    87    44    87    1
    88    44    88    1
    89    44    89    1
    90    45    42    1
    91    45    90    1
    92    45    91    1
    93    45    92    1
@<TRIPOS>MOLECULE
mol_517_akc_jm301172v
>501.sdf
 95 101 0 0 0
SMALL
GASTEIGER

@<TRIPOS>ATOM
      1 O         -19.3099   -6.3724  -10.5370 O.2     1  UNL1       -0.2870
      2 C         -18.6982   -5.3928  -10.1336 C.ar    1  UNL1        0.1931
      3 C         -17.8649   -5.4773   -8.9261 C.ar    1  UNL1        0.0287
      4 C         -17.1666   -4.4025   -8.5283 C.ar    1  UNL1        0.1392
      5 O         -17.2260   -3.1649   -9.1454 O.2     1  UNL1       -0.4546
      6 C         -17.9842   -3.0426  -10.2804 C.ar    1  UNL1        0.1392
      7 C         -18.7148   -4.0962  -10.8219 C.ar    1  UNL1        0.0640
      8 C         -19.4403   -3.9278  -12.0019 C.ar    1  UNL1       -0.0474
      9 C         -19.4378   -2.6822  -12.6315 C.ar    1  UNL1       -0.0609
     10 C         -18.7179   -1.6207  -12.0822 C.ar    1  UNL1       -0.0582
     11 C         -17.9897   -1.7959  -10.9062 C.ar    1  UNL1       -0.0186
     12 C         -16.2340   -4.4634   -7.3875 C.ar    1  UNL1        0.0176
     13 C         -15.5303   -5.6411   -7.1136 C.ar    1  UNL1       -0.0476
     14 C         -14.6370   -5.7066   -6.0482 C.ar    1  UNL1       -0.0193
     15 C         -14.4088   -4.5882   -5.2408 C.ar    1  UNL1        0.1206
     16 O         -13.5659   -4.5520   -4.1560 O.3     1  UNL1       -0.4897
     17 C         -12.8564   -5.7627   -3.9516 C.3     1  UNL1        0.1128
     18 C         -11.8316   -5.6621   -2.8286 C.3     1  UNL1        0.0820
     19 O         -11.1298   -6.9093   -2.6657 O.3     1  UNL1       -0.3712
     20 C         -10.2845   -7.2399   -3.7693 C.3     1  UNL1        0.0877
     21 C          -9.6403   -8.6269   -3.6008 C.3     1  UNL1       -0.0075
     22 N         -10.6548   -9.7769   -3.4928 N.4     1  UNL1        0.2417
     23 C         -11.3823   -9.7575   -2.1482 C.3     1  UNL1       -0.0075
     24 C         -12.3123  -10.9523   -1.9538 C.3     1  UNL1        0.0877
     25 O         -11.6246  -12.1893   -2.1423 O.3     1  UNL1       -0.3712
     26 C         -12.5180  -13.3131   -1.9594 C.3     1  UNL1        0.0820
     27 C         -13.5081  -13.3912   -3.1190 C.3     1  UNL1        0.1128
     28 O         -14.4043  -14.4822   -2.9831 O.3     1  UNL1       -0.4897
     29 C         -15.3883  -14.4767   -3.9411 C.ar    1  UNL1        0.1206
     30 C         -15.2147  -14.0196   -5.2496 C.ar    1  UNL1       -0.0193
     31 C         -16.2625  -14.0972   -6.1666 C.ar    1  UNL1       -0.0476
     32 C         -17.4996  -14.6404   -5.7981 C.ar    1  UNL1        0.0176
     33 C         -17.6688  -15.0782   -4.4767 C.ar    1  UNL1       -0.0476
     34 C         -16.6180  -15.0022   -3.5570 C.ar    1  UNL1       -0.0193
     35 C         -18.5775  -14.7355   -6.8080 C.ar    1  UNL1        0.1392
     36 C         -19.4652  -15.7310   -6.8057 C.ar    1  UNL1        0.0287
     37 C         -20.4873  -15.7925   -7.8628 C.ar    1  UNL1        0.1931
     38 O         -21.3381  -16.6771   -7.8681 O.2     1  UNL1       -0.2870
     39 C         -20.4183  -14.7579   -8.8982 C.ar    1  UNL1        0.0640
     40 C         -19.4377  -13.7732   -8.7966 C.ar    1  UNL1        0.1392
     41 O         -18.5370  -13.7280   -7.7646 O.2     1  UNL1       -0.4546
     42 C         -19.3435  -12.7783   -9.7690 C.ar    1  UNL1       -0.0186
     43 C         -20.2321  -12.7764  -10.8456 C.ar    1  UNL1       -0.0582
     44 C         -21.2153  -13.7633  -10.9471 C.ar    1  UNL1       -0.0609
     45 C         -21.3115  -14.7569   -9.9725 C.ar    1  UNL1       -0.0474
     46 C         -11.5536   -9.9344   -4.7013 C.3     1  UNL1       -0.0057
     47 C         -10.8150  -10.0949   -6.0015 C.ar    1  UNL1       -0.0000
     48 C          -9.9929  -11.2089   -6.2187 C.ar    1  UNL1       -0.0354
     49 C          -9.3064  -11.3029   -7.4174 C.ar    1  UNL1        0.0280
     50 N          -9.3903  -10.3779   -8.3928 N.ar    1  UNL1       -0.2632
     51 C         -10.2069   -9.3268   -8.1873 C.ar    1  UNL1        0.0280
     52 C         -10.9337   -9.1435   -7.0220 C.ar    1  UNL1       -0.0354
     53 C         -15.0729   -3.3993   -5.5267 C.ar    1  UNL1       -0.0193
     54 C         -15.9812   -3.3374   -6.5897 C.ar    1  UNL1       -0.0476
     55 H         -17.8444   -6.4410   -8.4356 H       1  UNL1        0.0693
     56 H         -19.9971   -4.7567  -12.4300 H       1  UNL1        0.0626
     57 H         -19.9976   -2.5403  -13.5527 H       1  UNL1        0.0618
     58 H         -18.7211   -0.6506  -12.5777 H       1  UNL1        0.0619
     59 H         -17.4261   -0.9686  -10.4841 H       1  UNL1        0.0654
     60 H         -15.6573   -6.5272   -7.7314 H       1  UNL1        0.0626
     61 H         -14.1429   -6.6572   -5.8912 H       1  UNL1        0.0654
     62 H         -13.5498   -6.5800   -3.7126 H       1  UNL1        0.0720
     63 H         -12.3305   -6.0044   -4.8785 H       1  UNL1        0.0720
     64 H         -11.1208   -4.8462   -2.9952 H       1  UNL1        0.0594
     65 H         -12.3485   -5.4444   -1.8863 H       1  UNL1        0.0594
     66 H         -10.8503   -7.2480   -4.7002 H       1  UNL1        0.0613
     67 H          -9.5072   -6.4747   -3.8555 H       1  UNL1        0.0613
     68 H          -9.0019   -8.8427   -4.4633 H       1  UNL1        0.0837
     69 H          -9.0251   -8.6704   -2.6977 H       1  UNL1        0.0837
     70 H         -10.0983  -10.6421   -3.4514 H       1  UNL1        0.2038
     71 H         -10.6033   -9.7516   -1.3800 H       1  UNL1        0.0837
     72 H         -11.9934   -8.8595   -2.0951 H       1  UNL1        0.0837
     73 H         -12.7573  -10.9208   -0.9545 H       1  UNL1        0.0613
     74 H         -13.1226  -10.8521   -2.6776 H       1  UNL1        0.0613
     75 H         -11.9139  -14.2275   -1.9315 H       1  UNL1        0.0594
     76 H         -13.0278  -13.2484   -0.9900 H       1  UNL1        0.0594
     77 H         -14.1025  -12.4733   -3.1657 H       1  UNL1        0.0720
     78 H         -12.9157  -13.4669   -4.0372 H       1  UNL1        0.0720
     79 H         -14.2712  -13.6247   -5.6075 H       1  UNL1        0.0654
     80 H         -16.0900  -13.7542   -7.1853 H       1  UNL1        0.0626
     81 H         -18.6182  -15.4890   -4.1403 H       1  UNL1        0.0626
     82 H         -16.7681  -15.3523   -2.5388 H       1  UNL1        0.0654
     83 H         -19.4882  -16.5371   -6.0798 H       1  UNL1        0.0693
     84 H         -18.5825  -12.0069   -9.6920 H       1  UNL1        0.0654
     85 H         -20.1621  -12.0020  -11.6065 H       1  UNL1        0.0619
     86 H         -21.9088  -13.7588  -11.7845 H       1  UNL1        0.0618
     87 H         -22.0770  -15.5262  -10.0494 H       1  UNL1        0.0626
     88 H         -12.1542  -10.8383   -4.5628 H       1  UNL1        0.0867
     89 H         -12.2378   -9.0789   -4.7178 H       1  UNL1        0.0867
     90 H          -9.8826  -12.0010   -5.4841 H       1  UNL1        0.0637
     91 H          -8.6530  -12.1451   -7.6327 H       1  UNL1        0.0829
     92 H         -10.2605   -8.6162   -9.0092 H       1  UNL1        0.0829
     93 H         -11.5759   -8.2724   -6.9350 H       1  UNL1        0.0637
     94 H         -14.8881   -2.5137   -4.9231 H       1  UNL1        0.0654
     95 H         -16.4925   -2.3962   -6.7835 H       1  UNL1        0.0626
@<TRIPOS>UNITY_ATOM_ATTR
22 1
charge 1
@<TRIPOS>BOND
     1     2     1    2
     2     3     2   ar
     3     3    55    1
     4     4     3   ar
     5     5     4   ar
     6     6     5   ar
     7     7     6   ar
     8     7     2   ar
     9     8     7   ar
    10     8    56    1
    11     9     8   ar
    12     9    57    1
    13    10     9   ar
    14    10    58    1
    15    11    10   ar
    16    11     6   ar
    17    11    59    1
    18    12     4    1
    19    13    12   ar
    20    13    60    1
    21    14    13   ar
    22    14    61    1
    23    15    14   ar
    24    16    15    1
    25    17    16    1
    26    17    62    1
    27    17    63    1
    28    18    17    1
    29    18    64    1
    30    18    65    1
    31    19    18    1
    32    20    19    1
    33    20    66    1
    34    20    67    1
    35    21    20    1
    36    21    68    1
    37    21    69    1
    38    22    21    1
    39    22    70    1
    40    23    22    1
    41    23    71    1
    42    23    72    1
    43    24    23    1
    44    24    73    1
    45    24    74    1
    46    25    24    1
    47    26    25    1
    48    26    75    1
    49    26    76    1
    50    27    26    1
    51    27    77    1
    52    27    78    1
    53    28    27    1
    54    29    28    1
    55    30    29   ar
    56    30    79    1
    57    31    30   ar
    58    31    80    1
    59    32    31   ar
    60    33    32   ar
    61    33    81    1
    62    34    33   ar
    63    34    29   ar
    64    34    82    1
    65    35    32    1
    66    36    35   ar
    67    36    83    1
    68    37    36   ar
    69    38    37    2
    70    39    37   ar
    71    40    39   ar
    72    41    40   ar
    73    41    35   ar
    74    42    40   ar
    75    42    84    1
    76    43    42   ar
    77    43    85    1
    78    44    43   ar
    79    44    86    1
    80    45    44   ar
    81    45    39   ar
    82    45    87    1
    83    46    22    1
    84    46    88    1
    85    46    89    1
    86    47    46    1
    87    48    47   ar
    88    48    90    1
    89    49    48   ar
    90    49    91    1
    91    50    49   ar
    92    51    50   ar
    93    51    92    1
    94    52    51   ar
    95    52    47   ar
    96    52    93    1
    97    53    15   ar
    98    53    94    1
    99    54    53   ar
   100    54    12   ar
   101    54    95    1
@<TRIPOS>MOLECULE
mol_518_akc_bpbb12_00419
>502.sdf
 20 21 0 0 0
SMALL
GASTEIGER

@<TRIPOS>ATOM
      1 O           1.1264    0.1328    0.0632 O.3     1  UNL1       -0.5060
      2 C           2.4899    0.0702    0.0630 C.ar    1  UNL1        0.1286
      3 C           3.2006    1.2731    0.0632 C.ar    1  UNL1       -0.0160
      4 C           4.5904    1.2544    0.0631 C.ar    1  UNL1       -0.0160
      5 C           5.2627    0.0374    0.0627 C.ar    1  UNL1        0.1286
      6 O           6.6296    0.1205    0.0626 O.3     1  UNL1       -0.5060
      7 C           4.5556   -1.1786    0.0627 C.ar    1  UNL1        0.0789
      8 C           3.1573   -1.1701    0.0628 C.ar    1  UNL1        0.0789
      9 C           2.4124   -2.4590    0.0630 C.2     1  UNL1        0.2101
     10 O           1.1882   -2.4996    0.0619 O.2     1  UNL1       -0.2855
     11 C           3.2016   -3.7218    0.0645 C.2     1  UNL1        0.1102
     12 CL          2.2757   -5.1912    0.0666 Cl      1  UNL1       -0.0779
     13 C           4.5374   -3.7192    0.0643 C.2     1  UNL1        0.1102
     14 CL          5.4872   -5.1688    0.0660 Cl      1  UNL1       -0.0779
     15 C           5.2997   -2.4509    0.0626 C.2     1  UNL1        0.2101
     16 O           6.5281   -2.4205    0.0613 O.2     1  UNL1       -0.2855
     17 H           0.8185    1.0535    0.0624 H       1  UNL1        0.2922
     18 H           2.6883    2.2317    0.0636 H       1  UNL1        0.0655
     19 H           5.1523    2.1858    0.0633 H       1  UNL1        0.0655
     20 H           7.0072   -0.7888    0.0619 H       1  UNL1        0.2922
@<TRIPOS>BOND
     1     1    17    1
     2     2     1    1
     3     3     2   ar
     4     3    18    1
     5     4     3   ar
     6     4    19    1
     7     5     4   ar
     8     6     5    1
     9     6    20    1
    10     7     5   ar
    11     8     7   ar
    12     8     2   ar
    13     9     8    1
    14    10     9    2
    15    11     9    1
    16    12    11    1
    17    13    11    2
    18    14    13    1
    19    15    13    1
    20    15     7    1
    21    16    15    2
@<TRIPOS>MOLECULE
mol_519_akc_jparint201202001
>503.sdf
 53 55 0 0 0
SMALL
GASTEIGER

@<TRIPOS>ATOM
      1 H           0.9280    2.5619    0.8294 H       1  UNL1        0.0320
      2 C           1.4281    1.7908    0.2145 C.3     1  UNL1       -0.0157
      3 C           1.0927    0.4812    0.9982 C.3     1  UNL1       -0.0443
      4 C          -0.0553   -0.3788    0.4309 C.3     1  UNL1       -0.0233
      5 C          -1.1116    0.4914   -0.1979 C.2     1  UNL1        0.0069
      6 C          -0.7601    1.6187   -0.8488 C.2     1  UNL1        0.0123
      7 C          -1.8126    2.6596   -0.9459 C.2     1  UNL1        0.1834
      8 O          -1.5883    3.8563   -0.8084 O.2     1  UNL1       -0.2876
      9 C          -3.2105    2.2381   -0.9961 C.2     1  UNL1       -0.0076
     10 C          -3.5679    1.1024   -0.3818 C.2     1  UNL1        0.0057
     11 C          -4.9741    0.8466    0.0999 C.3     1  UNL1       -0.0178
     12 C          -5.0261    1.3523    1.5537 C.3     1  UNL1       -0.0585
     13 C          -6.0716    1.5016   -0.7452 C.3     1  UNL1       -0.0585
     14 C          -2.5264    0.1461    0.0819 C.2     1  UNL1        0.1860
     15 O          -2.8254   -0.8946    0.6566 O.2     1  UNL1       -0.2873
     16 C           0.7095    1.9131   -1.1681 C.3     1  UNL1        0.0008
     17 C           1.1955    0.8706   -2.2171 C.3     1  UNL1       -0.0551
     18 C           0.9819    3.2968   -1.8602 C.3     1  UNL1       -0.0432
     19 C           1.9423    4.1819   -1.0801 C.3     1  UNL1       -0.0512
     20 C           3.2022    3.3813   -0.7607 C.3     1  UNL1       -0.0372
     21 C           2.9357    2.2118    0.2309 C.3     1  UNL1        0.0686
     22 C           3.9213    1.0761   -0.1176 C.3     1  UNL1       -0.0491
     23 C           3.2700    2.6563    1.6704 C.2     1  UNL1        0.3131
     24 O           3.6670    1.8986    2.5475 O.2     1  UNL1       -0.2502
     25 O           3.0042    3.9762    1.8679 O.3     1  UNL1       -0.4675
     26 C           3.2788    4.4500    3.1864 C.3     1  UNL1        0.0817
     27 H           0.7935    0.7882    2.0140 H       1  UNL1        0.0272
     28 H           1.9563   -0.1670    1.1522 H       1  UNL1        0.0272
     29 H          -0.4629   -0.9642    1.2631 H       1  UNL1        0.0315
     30 H           0.3153   -1.1075   -0.2845 H       1  UNL1        0.0315
     31 H          -3.9114    3.0136   -1.2692 H       1  UNL1        0.0660
     32 H          -5.1759   -0.2312    0.0819 H       1  UNL1        0.0345
     33 H          -4.1804    2.0113    1.7993 H       1  UNL1        0.0235
     34 H          -5.9386    1.9141    1.7677 H       1  UNL1        0.0235
     35 H          -4.9708    0.5078    2.2479 H       1  UNL1        0.0235
     36 H          -7.0552    1.1364   -0.4291 H       1  UNL1        0.0235
     37 H          -6.0793    2.5922   -0.6368 H       1  UNL1        0.0235
     38 H          -5.9526    1.2622   -1.8072 H       1  UNL1        0.0235
     39 H           1.2192   -0.1565   -1.8560 H       1  UNL1        0.0238
     40 H           0.5498    0.8867   -3.1049 H       1  UNL1        0.0238
     41 H           2.2092    1.0943   -2.5660 H       1  UNL1        0.0238
     42 H           0.0904    3.8684   -2.1095 H       1  UNL1        0.0274
     43 H           1.4258    3.1423   -2.8537 H       1  UNL1        0.0274
     44 H           2.2006    5.0549   -1.6893 H       1  UNL1        0.0266
     45 H           1.4629    4.5664   -0.1726 H       1  UNL1        0.0266
     46 H           3.9798    4.0559   -0.3827 H       1  UNL1        0.0276
     47 H           3.5929    2.9879   -1.7090 H       1  UNL1        0.0276
     48 H           3.7611    0.6802   -1.1225 H       1  UNL1        0.0240
     49 H           4.9550    1.4394   -0.0689 H       1  UNL1        0.0240
     50 H           3.8685    0.2339    0.5778 H       1  UNL1        0.0240
     51 H           3.1578    5.5369    3.1854 H       1  UNL1        0.0661
     52 H           2.5651    4.0192    3.8943 H       1  UNL1        0.0661
     53 H           4.3079    4.2193    3.4795 H       1  UNL1        0.0661
@<TRIPOS>BOND
     1     2     1    1
     2     3     2    1
     3     3    27    1
     4     3    28    1
     5     4     3    1
     6     4    29    1
     7     4    30    1
     8     5     4    1
     9     6     5    2
    10     7     6    1
    11     8     7    2
    12     9     7    1
    13     9    31    1
    14    10     9    2
    15    11    10    1
    16    11    32    1
    17    12    11    1
    18    12    33    1
    19    12    34    1
    20    12    35    1
    21    13    11    1
    22    13    36    1
    23    13    37    1
    24    13    38    1
    25    14    10    1
    26    14     5    1
    27    15    14    2
    28    16     6    1
    29    16     2    1
    30    16    17    1
    31    17    39    1
    32    17    40    1
    33    17    41    1
    34    18    16    1
    35    18    42    1
    36    18    43    1
    37    19    18    1
    38    19    44    1
    39    19    45    1
    40    20    19    1
    41    20    46    1
    42    20    47    1
    43    21    20    1
    44    21     2    1
    45    21    22    1
    46    22    48    1
    47    22    49    1
    48    22    50    1
    49    23    21    1
    50    24    23    2
    51    25    23    1
    52    26    25    1
    53    26    51    1
    54    26    52    1
    55    26    53    1
@<TRIPOS>MOLECULE
mol_51_akc_ajpp20164401
>51.sdf
 59 63 0 0 0
SMALL
GASTEIGER

@<TRIPOS>ATOM
      1 C           1.5390   -1.2474    3.3501 C.3     1  UNL1       -0.0569
      2 C           3.0239   -0.9364    3.2781 C.3     1  UNL1        0.0230
      3 C           3.4258   -0.2754    1.9668 C.2     1  UNL1        0.2351
      4 O           2.6101   -0.0051    1.0858 O.2     1  UNL1       -0.2739
      5 N           4.7693    0.0609    1.8784 N.am    1  UNL1       -0.1850
      6 N           5.6513   -0.2045    2.8978 N.2     1  UNL1       -0.1809
      7 C           6.7118    0.5085    2.6727 C.2     1  UNL1        0.0688
      8 C           6.6339    1.4143    1.4769 C.3     1  UNL1        0.0165
      9 C           5.2854    1.0077    0.8921 C.3     1  UNL1        0.0828
     10 C           5.4234    0.4227   -0.4810 C.ar    1  UNL1        0.0210
     11 C           5.6685   -0.8907   -0.8307 C.ar    1  UNL1        0.0369
     12 N           5.6719   -0.9658   -2.2026 N.ar    1  UNL1       -0.2390
     13 N           5.5408    0.2626   -2.7565 N.ar    1  UNL1       -0.1660
     14 C           5.3489    1.1122   -1.7340 C.ar    1  UNL1        0.0981
     15 C           5.1015    2.5365   -2.0113 C.ar    1  UNL1        0.0025
     16 C           4.3803    2.9130   -3.1547 C.ar    1  UNL1       -0.0523
     17 C           4.1146    4.2589   -3.4306 C.ar    1  UNL1       -0.0582
     18 C           4.5615    5.2613   -2.5649 C.ar    1  UNL1       -0.0504
     19 C           4.2821    6.7092   -2.8361 C.3     1  UNL1       -0.0397
     20 C           5.2904    4.8965   -1.4308 C.ar    1  UNL1       -0.0582
     21 C           5.5709    3.5519   -1.1694 C.ar    1  UNL1       -0.0523
     22 C           5.7915   -2.1234   -3.0253 C.ar    1  UNL1        0.0654
     23 C           5.8510   -3.4091   -2.4662 C.ar    1  UNL1       -0.0363
     24 C           5.9288   -4.5284   -3.2984 C.ar    1  UNL1       -0.0598
     25 C           5.9545   -4.3791   -4.6837 C.ar    1  UNL1       -0.0616
     26 C           5.9074   -3.1031   -5.2453 C.ar    1  UNL1       -0.0598
     27 C           5.8229   -1.9792   -4.4197 C.ar    1  UNL1       -0.0363
     28 C           7.9068    0.4903    3.5491 C.ar    1  UNL1       -0.0022
     29 C           7.9063   -0.3350    4.6805 C.ar    1  UNL1       -0.0528
     30 C           9.0218   -0.3748    5.5205 C.ar    1  UNL1       -0.0611
     31 C          10.1403    0.4052    5.2328 C.ar    1  UNL1       -0.0617
     32 C          10.1446    1.2330    4.1109 C.ar    1  UNL1       -0.0611
     33 C           9.0302    1.2776    3.2691 C.ar    1  UNL1       -0.0528
     34 H           1.2687   -1.5728    4.3597 H       1  UNL1        0.0234
     35 H           0.9337   -0.3685    3.1041 H       1  UNL1        0.0234
     36 H           1.2745   -2.0460    2.6501 H       1  UNL1        0.0234
     37 H           3.2705   -0.2427    4.0911 H       1  UNL1        0.0356
     38 H           3.5995   -1.8574    3.4167 H       1  UNL1        0.0356
     39 H           7.4782    1.2561    0.7993 H       1  UNL1        0.0351
     40 H           6.6191    2.4533    1.8223 H       1  UNL1        0.0351
     41 H           4.5934    1.8569    0.8679 H       1  UNL1        0.0576
     42 H           5.8035   -1.7636   -0.2088 H       1  UNL1        0.0834
     43 H           4.0176    2.1506   -3.8427 H       1  UNL1        0.0624
     44 H           3.5550    4.5127   -4.3276 H       1  UNL1        0.0620
     45 H           3.6825    7.1359   -2.0256 H       1  UNL1        0.0278
     46 H           5.2226    7.2641   -2.9170 H       1  UNL1        0.0278
     47 H           3.7306    6.8445   -3.7722 H       1  UNL1        0.0278
     48 H           5.6538    5.6599   -0.7460 H       1  UNL1        0.0620
     49 H           6.1804    3.3288   -0.3050 H       1  UNL1        0.0624
     50 H           5.8196   -3.5749   -1.3945 H       1  UNL1        0.0639
     51 H           5.9619   -5.5258   -2.8633 H       1  UNL1        0.0618
     52 H           6.0086   -5.2539   -5.3265 H       1  UNL1        0.0618
     53 H           5.9267   -2.9836   -6.3255 H       1  UNL1        0.0618
     54 H           5.7819   -0.9951   -4.8827 H       1  UNL1        0.0639
     55 H           7.0409   -0.9489    4.9172 H       1  UNL1        0.0624
     56 H           9.0170   -1.0195    6.3948 H       1  UNL1        0.0618
     57 H          11.0092    0.3704    5.8859 H       1  UNL1        0.0618
     58 H          11.0174    1.8416    3.8903 H       1  UNL1        0.0618
     59 H           9.0671    1.9333    2.4040 H       1  UNL1        0.0624
@<TRIPOS>BOND
     1     1    34    1
     2     1    35    1
     3     1    36    1
     4     2     1    1
     5     2    37    1
     6     2    38    1
     7     3     2    1
     8     4     3    2
     9     5     3   am
    10     6     5    1
    11     7     6    2
    12     8     7    1
    13     8    39    1
    14     8    40    1
    15     9     8    1
    16     9     5    1
    17    11    10   ar
    18    11    42    1
    19    12    11   ar
    20    13    12   ar
    21    14    13   ar
    22    14    10   ar
    23    15    14    1
    24    16    15   ar
    25    16    43    1
    26    17    16   ar
    27    17    44    1
    28    18    17   ar
    29    19    18    1
    30    19    45    1
    31    19    46    1
    32    19    47    1
    33    20    18   ar
    34    20    48    1
    35    21    20   ar
    36    21    15   ar
    37    21    49    1
    38    22    12    1
    39    23    22   ar
    40    23    50    1
    41    24    23   ar
    42    24    51    1
    43    25    24   ar
    44    25    52    1
    45    26    25   ar
    46    26    53    1
    47    27    26   ar
    48    27    22   ar
    49    27    54    1
    50    28     7    1
    51    29    28   ar
    52    29    55    1
    53    30    29   ar
    54    30    56    1
    55    31    30   ar
    56    31    57    1
    57    32    31   ar
    58    32    58    1
    59    33    32   ar
    60    33    28   ar
    61    33    59    1
    62     9    10    1
    63     9    41    1
@<TRIPOS>MOLECULE
mol_520_akc_jparint201202001
>504.sdf
 47 49 0 0 0
SMALL
GASTEIGER

@<TRIPOS>ATOM
      1 H           1.3447    1.1216    1.1434 H       1  UNL1        0.0318
      2 C           1.4814    0.1773    0.5759 C.3     1  UNL1       -0.0223
      3 C           0.3756   -0.7538    1.1322 C.3     1  UNL1       -0.0195
      4 C          -0.8024   -0.0391    0.5245 C.2     1  UNL1        0.0073
      5 C          -0.4194    0.7700   -0.4780 C.2     1  UNL1        0.0134
      6 C          -1.2856    1.8828   -0.8508 C.2     1  UNL1        0.1973
      7 O          -0.8332    2.9866   -1.1518 O.2     1  UNL1       -0.2864
      8 C          -2.7341    1.5633   -0.8266 C.2     1  UNL1        0.0718
      9 BR         -3.7788    2.5014   -2.0619 Br      1  UNL1       -0.0459
     10 C          -3.1680    0.5715   -0.0184 C.2     1  UNL1        0.0197
     11 C          -4.5265   -0.0825   -0.1292 C.3     1  UNL1       -0.0167
     12 C          -4.3728   -1.6027   -0.2752 C.3     1  UNL1       -0.0585
     13 C          -5.4823    0.3157    0.9883 C.3     1  UNL1       -0.0585
     14 C          -2.1955   -0.0260    0.9699 C.2     1  UNL1        0.1871
     15 O          -2.5366   -0.5477    2.0221 O.2     1  UNL1       -0.2873
     16 C           0.9990    0.5016   -0.8601 C.3     1  UNL1        0.0006
     17 C           0.9550   -0.6883   -1.8604 C.3     1  UNL1       -0.0551
     18 C           1.8242    1.6399   -1.4521 C.3     1  UNL1       -0.0432
     19 C           3.3078    1.2827   -1.4274 C.3     1  UNL1       -0.0518
     20 C           3.7894    1.0043    0.0013 C.3     1  UNL1       -0.0476
     21 C           2.9887   -0.0931    0.7718 C.3     1  UNL1       -0.0310
     22 C           3.3181    0.0647    2.2773 C.3     1  UNL1       -0.0595
     23 C           3.4574   -1.4920    0.3566 C.3     1  UNL1       -0.0595
     24 H           0.3520   -0.7426    2.2244 H       1  UNL1        0.0318
     25 H           0.4561   -1.7838    0.7745 H       1  UNL1        0.0318
     26 H          -5.0038    0.2290   -1.0651 H       1  UNL1        0.0345
     27 H          -3.5874   -1.8460   -1.0017 H       1  UNL1        0.0235
     28 H          -4.1211   -2.0867    0.6717 H       1  UNL1        0.0235
     29 H          -5.3029   -2.0476   -0.6414 H       1  UNL1        0.0235
     30 H          -5.0290    0.2336    1.9799 H       1  UNL1        0.0235
     31 H          -5.8048    1.3561    0.8548 H       1  UNL1        0.0235
     32 H          -6.3805   -0.3113    0.9713 H       1  UNL1        0.0235
     33 H           0.6081   -0.3483   -2.8435 H       1  UNL1        0.0238
     34 H           0.2680   -1.4884   -1.5572 H       1  UNL1        0.0238
     35 H           1.9268   -1.1558   -2.0165 H       1  UNL1        0.0238
     36 H           1.5058    1.8514   -2.4803 H       1  UNL1        0.0274
     37 H           1.6734    2.5643   -0.8817 H       1  UNL1        0.0274
     38 H           3.8779    2.1198   -1.8466 H       1  UNL1        0.0266
     39 H           3.5127    0.4199   -2.0709 H       1  UNL1        0.0266
     40 H           3.7138    1.9516    0.5531 H       1  UNL1        0.0271
     41 H           4.8558    0.7511   -0.0226 H       1  UNL1        0.0271
     42 H           2.9728    1.0321    2.6625 H       1  UNL1        0.0235
     43 H           4.3988    0.0168    2.4534 H       1  UNL1        0.0235
     44 H           2.8411   -0.7185    2.8745 H       1  UNL1        0.0235
     45 H           2.8865   -2.2747    0.8660 H       1  UNL1        0.0235
     46 H           4.5122   -1.6354    0.6251 H       1  UNL1        0.0235
     47 H           3.3939   -1.6640   -0.7172 H       1  UNL1        0.0235
@<TRIPOS>BOND
     1     2     1    1
     2     3     2    1
     3     3    24    1
     4     3    25    1
     5     4     3    1
     6     5     4    2
     7     6     5    1
     8     7     6    2
     9     8     6    1
    10     9     8    1
    11    10     8    2
    12    11    10    1
    13    11    26    1
    14    12    11    1
    15    12    27    1
    16    12    28    1
    17    12    29    1
    18    13    11    1
    19    13    30    1
    20    13    31    1
    21    13    32    1
    22    14    10    1
    23    14     4    1
    24    15    14    2
    25    16     5    1
    26    16     2    1
    27    16    17    1
    28    17    33    1
    29    17    34    1
    30    17    35    1
    31    18    16    1
    32    18    36    1
    33    18    37    1
    34    19    18    1
    35    19    38    1
    36    19    39    1
    37    20    19    1
    38    20    40    1
    39    20    41    1
    40    21    20    1
    41    21     2    1
    42    22    21    1
    43    22    42    1
    44    22    43    1
    45    22    44    1
    46    23    21    1
    47    23    45    1
    48    23    46    1
    49    23    47    1
@<TRIPOS>MOLECULE
mol_521_akc_jacdks159
>505.sdf
 71 74 0 0 0
SMALL
GASTEIGER

@<TRIPOS>ATOM
      1 C          -3.2016   10.2188   -7.8233 C.3     1  UNL1        0.0820
      2 O          -1.8637    9.9800   -7.3847 O.3     1  UNL1       -0.4646
      3 C          -0.9624   10.8818   -7.8527 C.2     1  UNL1        0.3382
      4 O          -1.2406   11.8206   -8.5880 O.2     1  UNL1       -0.2452
      5 C           0.4090   10.5843   -7.3733 C.2     1  UNL1        0.0779
      6 C           0.6029    9.7214   -6.3564 C.2     1  UNL1        0.0982
      7 O           1.8251    9.3469   -5.8343 O.2     1  UNL1       -0.4702
      8 C           2.9816    9.7541   -6.6025 C.3     1  UNL1        0.2073
      9 O           3.1681    8.9792   -7.7881 O.3     1  UNL1       -0.3096
     10 C           3.3930    7.5866   -7.5698 C.3     1  UNL1        0.1918
     11 O           2.2469    7.0140   -6.9570 O.3     1  UNL1       -0.3404
     12 C           2.3263    5.6092   -6.7269 C.3     1  UNL1        0.1130
     13 C           1.0577    5.2065   -5.9606 C.3     1  UNL1        0.0730
     14 O          -0.1146    5.4165   -6.7499 O.3     1  UNL1       -0.3924
     15 C           2.4703    4.8597   -8.0552 C.3     1  UNL1        0.1119
     16 O           2.6781    3.4599   -7.8239 O.3     1  UNL1       -0.3865
     17 C           3.6810    5.4071   -8.8144 C.3     1  UNL1        0.1141
     18 O           3.7501    4.8200  -10.1278 O.3     1  UNL1       -0.3864
     19 C           3.6292    6.9301   -8.9488 C.3     1  UNL1        0.1342
     20 O           4.8621    7.3638   -9.5456 O.3     1  UNL1       -0.3841
     21 C           2.7554   11.2183   -6.9860 C.3     1  UNL1        0.0373
     22 C           3.8624   12.0782   -7.6007 C.3     1  UNL1       -0.0051
     23 C           4.9467   11.3149   -8.3529 C.3     1  UNL1       -0.0595
     24 C           3.0875   13.1228   -8.4493 C.3     1  UNL1        0.0957
     25 O           3.6044   13.1634   -9.7769 O.3     1  UNL1       -0.3878
     26 C           1.5844   12.7255   -8.4022 C.3     1  UNL1        0.1368
     27 O           0.9722   12.8805   -9.6916 O.3     1  UNL1       -0.4550
     28 C           0.4633   14.1115   -9.9417 C.2     1  UNL1        0.3323
     29 O           0.5990   15.0859   -9.2254 O.2     1  UNL1       -0.2456
     30 C          -0.2071   14.0563  -11.2601 C.2     1  UNL1        0.0231
     31 C          -0.3983   15.1062  -12.0774 C.2     1  UNL1       -0.0478
     32 C           0.0595   16.4641  -11.7888 C.ar    1  UNL1       -0.0246
     33 C           1.3257   16.8807  -12.2169 C.ar    1  UNL1       -0.0511
     34 C           1.8209   18.1279  -11.8309 C.ar    1  UNL1       -0.0196
     35 C           1.0420   18.9529  -11.0241 C.ar    1  UNL1        0.1169
     36 O           1.5086   20.1555  -10.5823 O.3     1  UNL1       -0.5068
     37 C          -0.2327   18.5669  -10.6268 C.ar    1  UNL1       -0.0196
     38 C          -0.7272   17.3207  -11.0108 C.ar    1  UNL1       -0.0511
     39 C           1.6077   11.2487   -8.0132 C.3     1  UNL1        0.0422
     40 H          -3.5403   11.2092   -7.5032 H       1  UNL1        0.0661
     41 H          -3.2703   10.1191   -8.9119 H       1  UNL1        0.0661
     42 H          -3.8481    9.4670   -7.3645 H       1  UNL1        0.0661
     43 H          -0.1848    9.2148   -5.8114 H       1  UNL1        0.1029
     44 H           3.8617    9.6590   -5.9568 H       1  UNL1        0.1059
     45 H           4.2761    7.4686   -6.9291 H       1  UNL1        0.0939
     46 H           3.1853    5.4038   -6.0751 H       1  UNL1        0.0647
     47 H           1.0851    4.1530   -5.6695 H       1  UNL1        0.0584
     48 H           0.9654    5.8230   -5.0589 H       1  UNL1        0.0584
     49 H          -0.8553    5.5291   -6.1294 H       1  UNL1        0.2095
     50 H           1.5701    4.9736   -8.6720 H       1  UNL1        0.0647
     51 H           2.2598    2.9922   -8.5696 H       1  UNL1        0.2100
     52 H           4.6120    5.1121   -8.3137 H       1  UNL1        0.0648
     53 H           3.9455    3.8750   -9.9902 H       1  UNL1        0.2100
     54 H           2.8302    7.2212   -9.6420 H       1  UNL1        0.0671
     55 H           4.9210    6.8763  -10.3896 H       1  UNL1        0.2101
     56 H           2.4284   11.7521   -6.0765 H       1  UNL1        0.0372
     57 H           4.3641   12.6084   -6.7793 H       1  UNL1        0.0329
     58 H           5.6878   12.0070   -8.7671 H       1  UNL1        0.0233
     59 H           5.4827   10.6375   -7.6800 H       1  UNL1        0.0233
     60 H           4.5345   10.7267   -9.1783 H       1  UNL1        0.0233
     61 H           3.2108   14.1246   -8.0209 H       1  UNL1        0.0633
     62 H           2.9393   13.6123  -10.3261 H       1  UNL1        0.2099
     63 H           1.0545   13.2954   -7.6269 H       1  UNL1        0.0766
     64 H          -0.5512   13.0706  -11.5611 H       1  UNL1        0.0689
     65 H          -0.9008   14.9717  -13.0299 H       1  UNL1        0.0626
     66 H           1.9444   16.2265  -12.8263 H       1  UNL1        0.0625
     67 H           2.8136   18.4276  -12.1504 H       1  UNL1        0.0654
     68 H           2.4542   20.2114  -10.7958 H       1  UNL1        0.2921
     69 H          -0.8260   19.2163   -9.9902 H       1  UNL1        0.0654
     70 H          -1.7057   17.0034  -10.6592 H       1  UNL1        0.0625
     71 H           1.8510   10.6696   -8.9162 H       1  UNL1        0.0394
@<TRIPOS>BOND
     1     1    40    1
     2     1    41    1
     3     1    42    1
     4     2     1    1
     5     3     2    1
     6     4     3    2
     7     5     3    1
     8     6     5    2
     9     6    43    1
    10     7     6    1
    11     8     7    1
    12     8    44    1
    13     9     8    1
    14    11    10    1
    15    12    11    1
    16    13    47    1
    17    13    48    1
    18    14    13    1
    19    14    49    1
    20    15    12    1
    21    15    50    1
    22    16    15    1
    23    16    51    1
    24    17    15    1
    25    17    52    1
    26    18    17    1
    27    18    53    1
    28    19    17    1
    29    19    10    1
    30    19    54    1
    31    20    19    1
    32    20    55    1
    33    21     8    1
    34    21    56    1
    35    22    21    1
    36    23    58    1
    37    23    59    1
    38    23    60    1
    39    24    22    1
    40    25    62    1
    41    26    24    1
    42    28    27    1
    43    29    28    2
    44    30    28    1
    45    30    64    1
    46    31    30    2
    47    31    65    1
    48    32    31    1
    49    33    32   ar
    50    33    66    1
    51    34    33   ar
    52    34    67    1
    53    35    34   ar
    54    36    35    1
    55    36    68    1
    56    37    35   ar
    57    37    69    1
    58    38    37   ar
    59    38    32   ar
    60    38    70    1
    61    39    26    1
    62    39     5    1
    63    39    21    1
    64    39    71    1
    65    10    45    1
    66    10     9    1
    67    12    13    1
    68    12    46    1
    69    22    23    1
    70    22    57    1
    71    24    25    1
    72    24    61    1
    73    26    27    1
    74    26    63    1
@<TRIPOS>MOLECULE
mol_522_akc_jejmech201204034
>505.sdf
 71 74 0 0 0
SMALL
GASTEIGER

@<TRIPOS>ATOM
      1 C          -3.1967   10.2358   -8.0160 C.3     1  UNL1        0.0820
      2 O          -1.8586    9.9898   -7.5838 O.3     1  UNL1       -0.4646
      3 C          -0.9505   10.8567   -8.1022 C.2     1  UNL1        0.3382
      4 O          -1.2175   11.7584   -8.8809 O.2     1  UNL1       -0.2452
      5 C           0.4202   10.5648   -7.6204 C.2     1  UNL1        0.0779
      6 C           0.6205    9.7415   -6.5708 C.2     1  UNL1        0.0982
      7 O           1.8453    9.3748   -6.0534 O.2     1  UNL1       -0.4702
      8 C           2.9956    9.7462   -6.8483 C.3     1  UNL1        0.2073
      9 O           3.1652    8.9335   -8.0104 O.3     1  UNL1       -0.3096
     10 C           3.3832    7.5457   -7.7592 C.3     1  UNL1        0.1918
     11 O           2.2421    6.9991   -7.1130 O.3     1  UNL1       -0.3404
     12 C           2.3035    5.5966   -6.8654 C.3     1  UNL1        0.1130
     13 C           1.0415    5.2211   -6.0735 C.3     1  UNL1        0.0730
     14 O          -0.1427    5.4603   -6.8366 O.3     1  UNL1       -0.3924
     15 C           2.4162    4.8234   -8.1831 C.3     1  UNL1        0.1119
     16 O           2.6074    3.4248   -7.9306 O.3     1  UNL1       -0.3865
     17 C           3.6232    5.3394   -8.9690 C.3     1  UNL1        0.1141
     18 O           3.6649    4.7300  -10.2732 O.3     1  UNL1       -0.3864
     19 C           3.5893    6.8596   -9.1293 C.3     1  UNL1        0.1342
     20 O           4.8178    7.2700   -9.7537 O.3     1  UNL1       -0.3841
     21 C           2.7726   11.1964   -7.2870 C.3     1  UNL1        0.0373
     22 C           3.8809   12.0222   -7.9447 C.3     1  UNL1       -0.0051
     23 C           4.9661   11.2225   -8.6574 C.3     1  UNL1       -0.0595
     24 C           3.1091   13.0216   -8.8430 C.3     1  UNL1        0.0957
     25 O           3.6044   12.9678  -10.1820 O.3     1  UNL1       -0.3878
     26 C           1.5985   12.6533   -8.7575 C.3     1  UNL1        0.1368
     27 O           1.0387   12.7806  -10.0761 O.3     1  UNL1       -0.4550
     28 C           0.4862   13.9942  -10.3511 C.2     1  UNL1        0.3323
     29 O           0.2877   14.8847   -9.5496 O.2     1  UNL1       -0.2456
     30 C           0.3524   14.0685  -11.8289 C.2     1  UNL1        0.0231
     31 C           0.3426   15.2096  -12.5423 C.2     1  UNL1       -0.0478
     32 C           0.4049   16.5467  -11.9558 C.ar    1  UNL1       -0.0246
     33 C           1.6380   17.1692  -11.7290 C.ar    1  UNL1       -0.0511
     34 C           1.6925   18.3867  -11.0454 C.ar    1  UNL1       -0.0196
     35 C           0.5113   18.9751  -10.6008 C.ar    1  UNL1        0.1169
     36 O           0.5230   20.1376   -9.8878 O.3     1  UNL1       -0.5068
     37 C          -0.7209   18.3855  -10.8545 C.ar    1  UNL1       -0.0196
     38 C          -0.7753   17.1691  -11.5344 C.ar    1  UNL1       -0.0511
     39 C           1.6125   11.1934   -8.3037 C.3     1  UNL1        0.0422
     40 H          -3.5138   11.2402   -7.7196 H       1  UNL1        0.0661
     41 H          -3.2805   10.1066   -9.1002 H       1  UNL1        0.0661
     42 H          -3.8512    9.5086   -7.5284 H       1  UNL1        0.0661
     43 H          -0.1655    9.2660   -5.9945 H       1  UNL1        0.1029
     44 H           3.8824    9.6688   -6.2093 H       1  UNL1        0.1059
     45 H           4.2759    7.4350   -7.1313 H       1  UNL1        0.0939
     46 H           3.1693    5.3864   -6.2241 H       1  UNL1        0.0647
     47 H           1.0507    4.1664   -5.7868 H       1  UNL1        0.0584
     48 H           0.9825    5.8365   -5.1687 H       1  UNL1        0.0584
     49 H          -0.8754    5.5366   -6.2012 H       1  UNL1        0.2095
     50 H           1.5082    4.9399   -8.7881 H       1  UNL1        0.0647
     51 H           2.1932    2.9509   -8.6744 H       1  UNL1        0.2100
     52 H           4.5578    5.0405   -8.4768 H       1  UNL1        0.0648
     53 H           3.8592    3.7867  -10.1244 H       1  UNL1        0.2100
     54 H           2.7816    7.1482   -9.8140 H       1  UNL1        0.0671
     55 H           4.8547    6.7627  -10.5922 H       1  UNL1        0.2101
     56 H           2.4596   11.7672   -6.3954 H       1  UNL1        0.0372
     57 H           4.3815   12.5939   -7.1515 H       1  UNL1        0.0329
     58 H           5.6983   11.8933   -9.1198 H       1  UNL1        0.0233
     59 H           5.5125   10.5917   -7.9485 H       1  UNL1        0.0233
     60 H           4.5539   10.5815   -9.4426 H       1  UNL1        0.0233
     61 H           3.2519   14.0494   -8.4924 H       1  UNL1        0.0633
     62 H           2.8299   12.9344  -10.7715 H       1  UNL1        0.2099
     63 H           1.0827   13.2687   -8.0080 H       1  UNL1        0.0766
     64 H           0.3177   13.1167  -12.3460 H       1  UNL1        0.0689
     65 H           0.2883   15.1751  -13.6271 H       1  UNL1        0.0626
     66 H           2.5629   16.6962  -12.0507 H       1  UNL1        0.0625
     67 H           2.6566   18.8450  -10.8528 H       1  UNL1        0.0654
     68 H           1.4433   20.3426   -9.6567 H       1  UNL1        0.2921
     69 H          -1.6337   18.8495  -10.4943 H       1  UNL1        0.0654
     70 H          -1.7379   16.6880  -11.6901 H       1  UNL1        0.0625
     71 H           1.8393   10.5742   -9.1838 H       1  UNL1        0.0394
@<TRIPOS>BOND
     1     1    40    1
     2     1    41    1
     3     1    42    1
     4     2     1    1
     5     3     2    1
     6     4     3    2
     7     5     3    1
     8     6     5    2
     9     6    43    1
    10     7     6    1
    11     8     7    1
    12     8    44    1
    13     9     8    1
    14    11    10    1
    15    12    11    1
    16    13    47    1
    17    13    48    1
    18    14    13    1
    19    14    49    1
    20    15    12    1
    21    15    50    1
    22    16    15    1
    23    16    51    1
    24    17    15    1
    25    17    52    1
    26    18    17    1
    27    18    53    1
    28    19    17    1
    29    19    10    1
    30    19    54    1
    31    20    19    1
    32    20    55    1
    33    21     8    1
    34    21    56    1
    35    22    21    1
    36    23    58    1
    37    23    59    1
    38    23    60    1
    39    24    22    1
    40    25    62    1
    41    26    24    1
    42    28    27    1
    43    29    28    2
    44    30    28    1
    45    30    64    1
    46    31    30    2
    47    31    65    1
    48    32    31    1
    49    33    32   ar
    50    33    66    1
    51    34    33   ar
    52    34    67    1
    53    35    34   ar
    54    36    35    1
    55    36    68    1
    56    37    35   ar
    57    37    69    1
    58    38    37   ar
    59    38    32   ar
    60    38    70    1
    61    39    26    1
    62    39     5    1
    63    39    21    1
    64    39    71    1
    65    10    45    1
    66    10     9    1
    67    12    13    1
    68    12    46    1
    69    22    23    1
    70    22    57    1
    71    24    25    1
    72    24    61    1
    73    26    27    1
    74    26    63    1
@<TRIPOS>MOLECULE
mol_523_akc_jejmech201204034
>506.sdf
 54 56 0 0 0
SMALL
GASTEIGER

@<TRIPOS>ATOM
      1 C          10.3457    8.8897    1.1071 C.3     1  UNL1        0.0820
      2 O          10.2560    7.4684    1.0098 O.3     1  UNL1       -0.4646
      3 C          11.3510    6.8034    1.4509 C.2     1  UNL1        0.3382
      4 O          12.3539    7.3204    1.9289 O.2     1  UNL1       -0.2452
      5 C          11.2023    5.3423    1.3002 C.2     1  UNL1        0.0768
      6 C          10.2947    4.8299    0.4555 C.2     1  UNL1        0.0982
      7 O          10.1043    3.5030    0.2047 O.2     1  UNL1       -0.4702
      8 C          10.8517    2.5339    0.9702 C.3     1  UNL1        0.2072
      9 O          10.9271    1.2892    0.2656 O.3     1  UNL1       -0.3096
     10 C           9.6300    0.6831    0.1230 C.3     1  UNL1        0.1918
     11 O           8.8048    1.5142   -0.6898 O.3     1  UNL1       -0.3404
     12 C           7.4543    1.0659   -0.7822 C.3     1  UNL1        0.1130
     13 C           6.6438    2.1614   -1.4883 C.3     1  UNL1        0.0730
     14 O           6.5791    3.3305   -0.6683 O.3     1  UNL1       -0.3924
     15 C           7.4507   -0.2428   -1.5744 C.3     1  UNL1        0.1119
     16 O           6.1291   -0.7750   -1.6844 O.3     1  UNL1       -0.3865
     17 C           8.3530   -1.2617   -0.8669 C.3     1  UNL1        0.1141
     18 O           8.4862   -2.4413   -1.6802 O.3     1  UNL1       -0.3864
     19 C           9.7541   -0.6962   -0.5628 C.3     1  UNL1        0.1342
     20 O          10.4467   -1.6497    0.2593 O.3     1  UNL1       -0.3841
     21 C          12.2537    3.0925    1.2417 C.3     1  UNL1        0.0362
     22 C          13.2290    2.2896    2.1059 C.3     1  UNL1       -0.0062
     23 C          13.8787    1.1155    1.3881 C.3     1  UNL1       -0.0595
     24 C          14.2304    3.3667    2.6032 C.3     1  UNL1        0.0847
     25 O          15.4670    3.3355    1.8983 O.3     1  UNL1       -0.3889
     26 C          13.5399    4.7451    2.4098 C.3     1  UNL1        0.0888
     27 O          14.2069    5.4563    1.3639 O.3     1  UNL1       -0.3886
     28 C          12.0941    4.3955    2.0484 C.3     1  UNL1        0.0311
     29 H          10.6655    9.2002    2.1076 H       1  UNL1        0.0661
     30 H          11.0323    9.2705    0.3455 H       1  UNL1        0.0661
     31 H           9.3518    9.3058    0.9207 H       1  UNL1        0.0661
     32 H           9.6169    5.4107   -0.1604 H       1  UNL1        0.1029
     33 H          10.3293    2.3686    1.9224 H       1  UNL1        0.1059
     34 H           9.1962    0.5629    1.1244 H       1  UNL1        0.0939
     35 H           7.0436    0.9301    0.2272 H       1  UNL1        0.0647
     36 H           7.1203    2.4400   -2.4343 H       1  UNL1        0.0584
     37 H           5.6161    1.8401   -1.6789 H       1  UNL1        0.0584
     38 H           6.3534    4.0737   -1.2524 H       1  UNL1        0.2095
     39 H           7.8257   -0.0686   -2.5916 H       1  UNL1        0.0647
     40 H           6.1037   -1.3106   -2.4991 H       1  UNL1        0.2100
     41 H           7.8840   -1.5990    0.0660 H       1  UNL1        0.0648
     42 H           7.6148   -2.8774   -1.6708 H       1  UNL1        0.2100
     43 H          10.3322   -0.6012   -1.4883 H       1  UNL1        0.0671
     44 H          10.4541   -2.4761   -0.2600 H       1  UNL1        0.2101
     45 H          12.7352    3.3065    0.2710 H       1  UNL1        0.0371
     46 H          12.6850    1.9064    2.9807 H       1  UNL1        0.0329
     47 H          14.7065    0.7085    1.9785 H       1  UNL1        0.0233
     48 H          13.1592    0.3063    1.2328 H       1  UNL1        0.0233
     49 H          14.2707    1.4085    0.4083 H       1  UNL1        0.0233
     50 H          14.4461    3.1910    3.6634 H       1  UNL1        0.0622
     51 H          15.4701    4.1539    1.3543 H       1  UNL1        0.2099
     52 H          13.6012    5.3385    3.3312 H       1  UNL1        0.0625
     53 H          13.8872    6.3826    1.4345 H       1  UNL1        0.2099
     54 H          11.5785    4.1634    2.9952 H       1  UNL1        0.0383
@<TRIPOS>BOND
     1     1    29    1
     2     1    30    1
     3     1    31    1
     4     2     1    1
     5     3     2    1
     6     4     3    2
     7     5     3    1
     8     6     5    2
     9     6    32    1
    10     7     6    1
    11     8     7    1
    12     8    33    1
    13     9     8    1
    14    11    10    1
    15    12    11    1
    16    13    36    1
    17    13    37    1
    18    14    13    1
    19    14    38    1
    20    15    12    1
    21    15    39    1
    22    16    15    1
    23    16    40    1
    24    17    15    1
    25    17    41    1
    26    18    17    1
    27    18    42    1
    28    19    17    1
    29    19    10    1
    30    19    43    1
    31    20    19    1
    32    20    44    1
    33    21     8    1
    34    21    45    1
    35    22    21    1
    36    23    47    1
    37    23    48    1
    38    23    49    1
    39    24    22    1
    40    25    51    1
    41    26    24    1
    42    27    53    1
    43    28    26    1
    44    28     5    1
    45    28    21    1
    46    28    54    1
    47    10    34    1
    48    10     9    1
    49    12    13    1
    50    12    35    1
    51    22    23    1
    52    22    46    1
    53    24    25    1
    54    24    50    1
    55    26    27    1
    56    26    52    1
@<TRIPOS>MOLECULE
mol_524_akc_jejmech201204029
>507.sdf
 20 21 0 0 0
SMALL
GASTEIGER

@<TRIPOS>ATOM
      1 O          -3.2674    0.5648   -0.0065 O.2     1  UNL1       -0.2679
      2 C          -2.1074    0.1710   -0.0019 C.ar    1  UNL1        0.2492
      3 N          -1.0384    1.0229    0.0077 N.ar    1  UNL1       -0.3203
      4 C           0.3118    0.6155    0.0060 C.ar    1  UNL1        0.0797
      5 C           0.5762   -0.7682    0.0050 C.ar    1  UNL1        0.0008
      6 C           1.8965   -1.2345    0.0030 C.ar    1  UNL1       -0.0525
      7 C           2.9611   -0.3342   -0.0020 C.ar    1  UNL1       -0.0589
      8 C           2.7138    1.0385   -0.0029 C.ar    1  UNL1       -0.0294
      9 C           1.3912    1.5184    0.0021 C.ar    1  UNL1        0.1500
     10 N           1.1858    2.9746   -0.0012 N.pl3   1  UNL1        0.0585
     11 O           0.0236    3.4059    0.0042 O.2     1  UNL1       -0.1261
     12 O           2.1929    3.6977   -0.0094 O.2     1  UNL1       -0.1261
     13 C          -0.5387   -1.7184    0.0004 C.ar    1  UNL1       -0.0474
     14 C          -1.8021   -1.2767   -0.0068 C.ar    1  UNL1        0.0034
     15 H          -1.2652    2.0164    0.0111 H       1  UNL1        0.1690
     16 H           2.1076   -2.3024    0.0027 H       1  UNL1        0.0624
     17 H           3.9851   -0.7027   -0.0072 H       1  UNL1        0.0618
     18 H           3.5632    1.7204   -0.0094 H       1  UNL1        0.0641
     19 H          -0.3256   -2.7818   -0.0014 H       1  UNL1        0.0626
     20 H          -2.6535   -1.9456   -0.0161 H       1  UNL1        0.0672
@<TRIPOS>BOND
     1     2     1    2
     2     3     2   ar
     3     3    15    1
     4     4     3   ar
     5     5     4   ar
     6     6     5   ar
     7     6    16    1
     8     7     6   ar
     9     7    17    1
    10     8     7   ar
    11     8    18    1
    12     9     8   ar
    13     9     4   ar
    14    10     9    1
    15    11    10    2
    16    12    10    2
    17    13     5   ar
    18    13    19    1
    19    14    13   ar
    20    14     2   ar
    21    14    20    1
@<TRIPOS>MOLECULE
mol_525_akc_s00436_012_2818_9
>508.sdf
 30 33 0 0 0
SMALL
GASTEIGER

@<TRIPOS>ATOM
      1 C           0.8485    0.0007   -0.0882 C.3     1  UNL1        0.0125
      2 N           2.3098    0.0092   -0.0887 N.ar    1  UNL1       -0.3412
      3 C           3.0271   -1.1930   -0.0885 C.ar    1  UNL1        0.0770
      4 C           2.6534   -2.4811   -0.0891 C.ar    1  UNL1        0.0270
      5 C           1.4232   -3.2123   -0.0905 C.ar    1  UNL1       -0.0365
      6 C           1.4517   -4.5561   -0.0891 C.ar    1  UNL1        0.0186
      7 BR         -0.1220   -5.5626   -0.0899 Br      1  UNL1       -0.0503
      8 C           2.7155   -5.2803   -0.0865 C.ar    1  UNL1       -0.0457
      9 C           3.9115   -4.6644   -0.0860 C.ar    1  UNL1       -0.0346
     10 C           3.9533   -3.1872   -0.0874 C.ar    1  UNL1        0.0738
     11 N           5.0089   -2.4355   -0.0865 N.ar    1  UNL1       -0.2451
     12 C           4.4906   -1.1637   -0.0869 C.ar    1  UNL1        0.0892
     13 C           5.1867   -0.0271   -0.0866 C.ar    1  UNL1       -0.0251
     14 C           4.4475    1.2434   -0.0871 C.ar    1  UNL1        0.0016
     15 C           3.0189    1.2482   -0.0882 C.ar    1  UNL1        0.0494
     16 C           2.3939    2.5081   -0.0888 C.ar    1  UNL1       -0.0366
     17 C           3.1307    3.6999   -0.0878 C.ar    1  UNL1       -0.0458
     18 C           4.5179    3.6608   -0.0863 C.ar    1  UNL1        0.0186
     19 BR          5.4999    5.2751   -0.0848 Br      1  UNL1       -0.0503
     20 C           5.1821    2.4407   -0.0860 C.ar    1  UNL1       -0.0386
     21 H           0.4810   -0.5184   -0.9808 H       1  UNL1        0.0456
     22 H           0.4815   -0.5219    0.8026 H       1  UNL1        0.0456
     23 H           0.3563    0.9718   -0.0858 H       1  UNL1        0.0456
     24 H           0.4820   -2.6803   -0.0926 H       1  UNL1        0.0636
     25 H           2.6779   -6.3663   -0.0854 H       1  UNL1        0.0629
     26 H           4.8535   -5.1965   -0.0843 H       1  UNL1        0.0639
     27 H           6.2690   -0.0326   -0.0855 H       1  UNL1        0.0646
     28 H           1.3177    2.6249   -0.0903 H       1  UNL1        0.0639
     29 H           2.6024    4.6502   -0.0882 H       1  UNL1        0.0629
     30 H           6.2689    2.4164   -0.0849 H       1  UNL1        0.0635
@<TRIPOS>BOND
     1     1    21    1
     2     1    22    1
     3     1    23    1
     4     2     1    1
     5     3     2   ar
     6     4     3   ar
     7     5     4   ar
     8     5    24    1
     9     6     5   ar
    10     7     6    1
    11     8     6   ar
    12     8    25    1
    13     9     8   ar
    14     9    26    1
    15    10     9   ar
    16    10     4   ar
    17    11    10   ar
    18    12    11   ar
    19    12     3    1
    20    13    12   ar
    21    13    27    1
    22    14    13   ar
    23    15    14   ar
    24    15     2   ar
    25    16    15   ar
    26    16    28    1
    27    17    16   ar
    28    17    29    1
    29    18    17   ar
    30    19    18    1
    31    20    18   ar
    32    20    14   ar
    33    20    30    1
@<TRIPOS>MOLECULE
mol_526_akc_s0074_02762012000300012
>509.sdf
 54 56 0 0 0
SMALL
GASTEIGER

@<TRIPOS>ATOM
      1 C           5.4118    1.2608   -1.4395 C.3     1  UNL1       -0.0585
      2 C           4.8494    2.0278   -0.2316 C.3     1  UNL1       -0.0181
      3 C           5.5500    3.3787   -0.0865 C.3     1  UNL1       -0.0585
      4 C           3.3369    2.1954   -0.2872 C.ar    1  UNL1       -0.0031
      5 C           2.5066    2.0321    0.8332 C.ar    1  UNL1        0.1237
      6 O           3.0270    1.8099    2.0839 O.3     1  UNL1       -0.5062
      7 C           1.0938    2.0657    0.7386 C.ar    1  UNL1       -0.0019
      8 C           0.4924    2.2280   -0.5264 C.ar    1  UNL1       -0.0343
      9 C           1.3282    2.4988   -1.6247 C.ar    1  UNL1       -0.0573
     10 C           2.7173    2.4996   -1.5038 C.ar    1  UNL1       -0.0546
     11 C          -1.0440    2.1800   -0.7224 C.3     1  UNL1       -0.0008
     12 C          -1.4301    3.6748   -0.9188 C.3     1  UNL1       -0.0550
     13 C          -1.4254    1.4126   -2.0250 C.3     1  UNL1       -0.0431
     14 C          -2.8666    0.8914   -2.0929 C.3     1  UNL1       -0.0517
     15 C          -3.8411    1.5177   -1.1016 C.3     1  UNL1       -0.0473
     16 C          -3.3657    1.5713    0.3863 C.3     1  UNL1       -0.0287
     17 C          -4.0905    0.4325    1.1570 C.3     1  UNL1       -0.0593
     18 C          -3.9437    2.8676    1.0197 C.3     1  UNL1       -0.0593
     19 C          -1.7674    1.4565    0.5011 C.3     1  UNL1       -0.0173
     20 C          -1.3596   -0.0648    0.5449 C.3     1  UNL1       -0.0583
     21 C          -1.2290    2.0853    1.8142 C.3     1  UNL1       -0.0422
     22 C           0.2759    1.8716    1.9937 C.3     1  UNL1       -0.0234
     23 H           5.3564    1.8450   -2.3643 H       1  UNL1        0.0235
     24 H           6.4658    1.0122   -1.2771 H       1  UNL1        0.0235
     25 H           4.8665    0.3234   -1.5977 H       1  UNL1        0.0235
     26 H           5.1058    1.4124    0.6389 H       1  UNL1        0.0345
     27 H           5.3306    4.0411   -0.9314 H       1  UNL1        0.0235
     28 H           5.2341    3.8903    0.8290 H       1  UNL1        0.0235
     29 H           6.6367    3.2472   -0.0376 H       1  UNL1        0.0235
     30 H           3.9417    2.1289    2.1028 H       1  UNL1        0.2922
     31 H           0.9063    2.7138   -2.6034 H       1  UNL1        0.0621
     32 H           3.3040    2.7166   -2.3927 H       1  UNL1        0.0622
     33 H          -0.8559    4.1367   -1.7323 H       1  UNL1        0.0238
     34 H          -2.4715    3.8187   -1.2030 H       1  UNL1        0.0238
     35 H          -1.2291    4.2765   -0.0268 H       1  UNL1        0.0238
     36 H          -1.2525    2.0489   -2.9028 H       1  UNL1        0.0274
     37 H          -0.7563    0.5515   -2.1653 H       1  UNL1        0.0274
     38 H          -3.2465    1.0440   -3.1112 H       1  UNL1        0.0266
     39 H          -2.8698   -0.1966   -1.9622 H       1  UNL1        0.0266
     40 H          -4.7938    0.9766   -1.1734 H       1  UNL1        0.0271
     41 H          -4.0784    2.5256   -1.4612 H       1  UNL1        0.0271
     42 H          -3.7585    0.3838    2.2018 H       1  UNL1        0.0235
     43 H          -5.1755    0.5942    1.1731 H       1  UNL1        0.0235
     44 H          -3.9333   -0.5467    0.6979 H       1  UNL1        0.0235
     45 H          -3.8584    2.8561    2.1120 H       1  UNL1        0.0235
     46 H          -5.0105    2.9731    0.7855 H       1  UNL1        0.0235
     47 H          -3.4571    3.7784    0.6691 H       1  UNL1        0.0235
     48 H          -1.5747   -0.4993    1.5285 H       1  UNL1        0.0236
     49 H          -1.8865   -0.6749   -0.1897 H       1  UNL1        0.0236
     50 H          -0.2950   -0.2297    0.3555 H       1  UNL1        0.0236
     51 H          -1.7450    1.6654    2.6867 H       1  UNL1        0.0274
     52 H          -1.4261    3.1623    1.8393 H       1  UNL1        0.0274
     53 H           0.4549    0.8564    2.3703 H       1  UNL1        0.0315
     54 H           0.6254    2.5648    2.7689 H       1  UNL1        0.0315
@<TRIPOS>BOND
     1     1    23    1
     2     1    24    1
     3     1    25    1
     4     2     1    1
     5     2    26    1
     6     3     2    1
     7     3    27    1
     8     3    28    1
     9     3    29    1
    10     5     4   ar
    11     6    30    1
    12     7     5   ar
    13     8     7   ar
    14     9     8   ar
    15    10     9   ar
    16    10     4   ar
    17    11     8    1
    18    12    33    1
    19    12    34    1
    20    12    35    1
    21    13    11    1
    22    14    13    1
    23    15    14    1
    24    16    15    1
    25    17    42    1
    26    17    43    1
    27    17    44    1
    28    18    45    1
    29    18    46    1
    30    18    47    1
    31    19    16    1
    32    19    11    1
    33    20    48    1
    34    20    49    1
    35    20    50    1
    36    21    19    1
    37    22    21    1
    38    22     7    1
    39     4     2    1
    40     6     5    1
    41     9    31    1
    42    10    32    1
    43    11    12    1
    44    13    36    1
    45    13    37    1
    46    14    38    1
    47    14    39    1
    48    15    40    1
    49    15    41    1
    50    17    16    1
    51    18    16    1
    52    19    20    1
    53    21    51    1
    54    21    52    1
    55    22    53    1
    56    22    54    1
@<TRIPOS>MOLECULE
mol_527_akc_s_0031_1298459
>510.sdf
 46 46 0 0 0
SMALL
GASTEIGER

@<TRIPOS>ATOM
      1 C          -0.9070    4.9805    3.4359 C.3     1  UNL1        0.0788
      2 O           0.3000    5.6976    3.2017 O.3     1  UNL1       -0.4951
      3 C           1.4718    5.0115    3.3670 C.ar    1  UNL1        0.1206
      4 C           1.6001    3.7161    3.8727 C.ar    1  UNL1       -0.0130
      5 C           2.8557    3.0630    3.9647 C.ar    1  UNL1        0.0014
      6 C           2.9408    1.6320    4.4595 C.3     1  UNL1       -0.0057
      7 C           1.6321    0.9318    4.7014 C.2     1  UNL1       -0.0806
      8 C           0.9437    0.8200    5.8598 C.2     1  UNL1       -0.0759
      9 C           1.4016    1.4300    7.1614 C.3     1  UNL1       -0.0438
     10 C          -0.3989    0.0988    5.9635 C.3     1  UNL1       -0.0286
     11 C          -0.9250   -0.4717    4.6398 C.3     1  UNL1       -0.0308
     12 C          -2.2488   -1.1735    4.7114 C.2     1  UNL1       -0.0850
     13 C          -2.8422   -1.7386    3.6392 C.2     1  UNL1       -0.0796
     14 C          -2.2556   -1.7329    2.2518 C.3     1  UNL1       -0.0440
     15 C          -4.1683   -2.4319    3.7753 C.3     1  UNL1       -0.0440
     16 C           3.9963    3.7738    3.5483 C.ar    1  UNL1        0.1238
     17 O           5.2724    3.2857    3.4449 O.3     1  UNL1       -0.4948
     18 C           5.7878    2.5612    4.5533 C.3     1  UNL1        0.0788
     19 C           3.8641    5.0797    3.0571 C.ar    1  UNL1       -0.0162
     20 C           2.6157    5.6960    2.9750 C.ar    1  UNL1       -0.0165
     21 H          -0.9660    4.0770    2.8189 H       1  UNL1        0.0660
     22 H          -1.0173    4.7415    4.4985 H       1  UNL1        0.0660
     23 H          -1.7423    5.6277    3.1507 H       1  UNL1        0.0660
     24 H           0.7076    3.1860    4.1871 H       1  UNL1        0.0658
     25 H           3.4741    1.0407    3.7037 H       1  UNL1        0.0357
     26 H           3.5340    1.5938    5.3759 H       1  UNL1        0.0357
     27 H           1.2443    0.4825    3.7904 H       1  UNL1        0.0575
     28 H           0.6376    2.1144    7.5464 H       1  UNL1        0.0274
     29 H           1.5711    0.6452    7.9054 H       1  UNL1        0.0274
     30 H           2.3254    2.0069    7.0733 H       1  UNL1        0.0274
     31 H          -0.3026   -0.7129    6.6958 H       1  UNL1        0.0313
     32 H          -1.1396    0.8045    6.3632 H       1  UNL1        0.0313
     33 H          -1.0226    0.3539    3.9228 H       1  UNL1        0.0310
     34 H          -0.1885   -1.1893    4.2550 H       1  UNL1        0.0310
     35 H          -2.7403   -1.2209    5.6821 H       1  UNL1        0.0572
     36 H          -2.0957   -2.7596    1.9067 H       1  UNL1        0.0274
     37 H          -2.9367   -1.2310    1.5566 H       1  UNL1        0.0274
     38 H          -1.2933   -1.2177    2.1868 H       1  UNL1        0.0274
     39 H          -4.0937   -3.2725    4.4736 H       1  UNL1        0.0274
     40 H          -4.9345   -1.7350    4.1318 H       1  UNL1        0.0274
     41 H          -4.5093   -2.8324    2.8145 H       1  UNL1        0.0274
     42 H           5.3742    2.9001    5.5116 H       1  UNL1        0.0660
     43 H           5.6313    1.4917    4.4074 H       1  UNL1        0.0660
     44 H           6.8702    2.7242    4.5864 H       1  UNL1        0.0660
     45 H           4.7462    5.6198    2.7217 H       1  UNL1        0.0655
     46 H           2.5352    6.7062    2.5829 H       1  UNL1        0.0655
@<TRIPOS>BOND
     1     1    21    1
     2     1    22    1
     3     1    23    1
     4     2     1    1
     5     3     2    1
     6     4     3   ar
     7     4    24    1
     8     5     4   ar
     9     6     5    1
    10     6    25    1
    11     6    26    1
    12     7     6    1
    13     7    27    1
    14     8     7    2
    15     9     8    1
    16     9    28    1
    17     9    29    1
    18     9    30    1
    19    10     8    1
    20    10    31    1
    21    10    32    1
    22    11    10    1
    23    11    33    1
    24    11    34    1
    25    12    11    1
    26    12    35    1
    27    13    12    2
    28    14    13    1
    29    14    36    1
    30    14    37    1
    31    14    38    1
    32    15    13    1
    33    15    39    1
    34    15    40    1
    35    15    41    1
    36    16     5   ar
    37    17    16    1
    38    18    17    1
    39    18    42    1
    40    18    43    1
    41    18    44    1
    42    19    16   ar
    43    19    45    1
    44    20    19   ar
    45    20     3   ar
    46    20    46    1
@<TRIPOS>MOLECULE
mol_528_akc_jbiopha201110005
>511.sdf
 50 49 0 0 0
SMALL
GASTEIGER

@<TRIPOS>ATOM
      1 C           0.9150    0.0866   -0.0605 C.3     1  UNL1       -0.0653
      2 C           2.4343    0.0844   -0.0491 C.3     1  UNL1       -0.0559
      3 C           2.9723    0.4990    1.3153 C.3     1  UNL1       -0.0533
      4 C           4.4976    0.5006    1.3312 C.3     1  UNL1       -0.0531
      5 C           5.0212    0.9190    2.7013 C.3     1  UNL1       -0.0531
      6 C           6.5448    0.9242    2.7229 C.3     1  UNL1       -0.0531
      7 C           7.0599    1.3415    4.0957 C.3     1  UNL1       -0.0531
      8 C           8.5825    1.3489    4.1176 C.3     1  UNL1       -0.0531
      9 C           9.1029    1.7636    5.4889 C.3     1  UNL1       -0.0529
     10 C          10.6262    1.7650    5.4961 C.3     1  UNL1       -0.0483
     11 C          11.1707    2.1776    6.8596 C.3     1  UNL1       -0.0126
     12 C          12.6877    2.1666    6.8262 C.3     1  UNL1       -0.0335
     13 N          13.2117    2.5762    8.1792 N.4     1  UNL1        0.2307
     14 C          14.7132    2.5903    8.2311 C.3     1  UNL1        0.0073
     15 C          15.2586    3.0098    9.6168 C.3     1  UNL1        0.0057
     16 N          16.7505    3.0205    9.6587 N.4     1  UNL1        0.2223
     17 H           0.5429   -0.2123   -1.0442 H       1  UNL1        0.0230
     18 H           0.5177   -0.6130    0.6821 H       1  UNL1        0.0230
     19 H           0.5239    1.0844    0.1639 H       1  UNL1        0.0230
     20 H           2.7980   -0.9179   -0.3041 H       1  UNL1        0.0263
     21 H           2.8041    0.7704   -0.8200 H       1  UNL1        0.0263
     22 H           2.6015    1.5007    1.5706 H       1  UNL1        0.0265
     23 H           2.5975   -0.1871    2.0857 H       1  UNL1        0.0265
     24 H           4.8717   -0.4997    1.0824 H       1  UNL1        0.0265
     25 H           4.8756    1.1886    0.5655 H       1  UNL1        0.0265
     26 H           4.6461    1.9189    2.9517 H       1  UNL1        0.0265
     27 H           4.6443    0.2307    3.4678 H       1  UNL1        0.0265
     28 H           6.9231   -0.0749    2.4736 H       1  UNL1        0.0265
     29 H           6.9248    1.6141    1.9595 H       1  UNL1        0.0265
     30 H           6.6815    2.3400    4.3461 H       1  UNL1        0.0265
     31 H           6.6823    0.6506    4.8593 H       1  UNL1        0.0265
     32 H           8.9610    0.3509    3.8645 H       1  UNL1        0.0265
     33 H           8.9599    2.0404    3.3541 H       1  UNL1        0.0265
     34 H           8.7282    2.7630    5.7419 H       1  UNL1        0.0265
     35 H           8.7275    1.0724    6.2535 H       1  UNL1        0.0265
     36 H          10.9961    0.7649    5.2393 H       1  UNL1        0.0267
     37 H          10.9971    2.4541    4.7277 H       1  UNL1        0.0267
     38 H          10.8045    3.1786    7.1185 H       1  UNL1        0.0317
     39 H          10.8033    1.4891    7.6303 H       1  UNL1        0.0317
     40 H          13.0792    1.1652    6.6177 H       1  UNL1        0.0814
     41 H          13.0801    2.8826    6.0973 H       1  UNL1        0.0814
     42 H          12.8045    3.5025    8.3901 H       1  UNL1        0.2015
     43 H          12.8028    1.9241    8.8688 H       1  UNL1        0.2015
     44 H          15.0502    1.5794    7.9782 H       1  UNL1        0.0867
     45 H          15.0521    3.2901    7.4597 H       1  UNL1        0.0867
     46 H          14.9297    4.0204    9.8759 H       1  UNL1        0.0866
     47 H          14.9288    2.3127   10.3935 H       1  UNL1        0.0866
     48 H          17.1863    2.1002    9.4862 H       1  UNL1        0.1996
     49 H          17.1868    3.6941    9.0073 H       1  UNL1        0.1996
     50 H          17.0853    3.3026   10.5968 H       1  UNL1        0.1996
@<TRIPOS>UNITY_ATOM_ATTR
13 1
charge 1
16 1
charge 1
@<TRIPOS>BOND
     1     1    17    1
     2     1    18    1
     3     1    19    1
     4     2     1    1
     5     2    20    1
     6     2    21    1
     7     3     2    1
     8     3    22    1
     9     3    23    1
    10     4     3    1
    11     4    24    1
    12     4    25    1
    13     5     4    1
    14     5    26    1
    15     5    27    1
    16     6     5    1
    17     6    28    1
    18     6    29    1
    19     7     6    1
    20     7    30    1
    21     7    31    1
    22     8     7    1
    23     8    32    1
    24     8    33    1
    25     9     8    1
    26     9    34    1
    27     9    35    1
    28    10     9    1
    29    10    36    1
    30    10    37    1
    31    11    10    1
    32    11    38    1
    33    11    39    1
    34    12    11    1
    35    12    40    1
    36    12    41    1
    37    13    12    1
    38    13    42    1
    39    13    43    1
    40    14    13    1
    41    14    44    1
    42    14    45    1
    43    15    14    1
    44    15    46    1
    45    15    47    1
    46    16    15    1
    47    16    48    1
    48    16    49    1
    49    16    50    1
@<TRIPOS>MOLECULE
mol_529_akc_ml200280r
>512.sdf
 33 35 0 0 0
SMALL
GASTEIGER

@<TRIPOS>ATOM
      1 C           2.3156   -0.4658   -1.0416 C.3     1  UNL1        0.0788
      2 O           2.2186    0.6655   -0.1862 O.3     1  UNL1       -0.4951
      3 C           2.9929    0.6557    0.9387 C.ar    1  UNL1        0.1201
      4 C           3.7149   -0.4360    1.4255 C.ar    1  UNL1       -0.0193
      5 C           4.5020   -0.2958    2.5726 C.ar    1  UNL1       -0.0475
      6 C           4.5566    0.9311    3.2484 C.ar    1  UNL1        0.0226
      7 C           3.8323    2.0226    2.7682 C.ar    1  UNL1       -0.0475
      8 C           3.0464    1.8746    1.6254 C.ar    1  UNL1       -0.0193
      9 C           5.4933    1.0657    4.3796 C.2     1  UNL1        0.1972
     10 O           6.6340    0.6313    4.2272 O.2     1  UNL1       -0.2865
     11 C           5.0418    1.7342    5.6495 C.ar    1  UNL1        0.0726
     12 C           5.9193    1.6398    6.6769 C.ar    1  UNL1       -0.0361
     13 C           5.9644    0.2362    7.1456 C.ar    1  UNL1        0.0191
     14 C           4.7293   -0.4236    7.2366 C.ar    1  UNL1        0.1364
     15 O           3.5441    0.2761    6.9030 O.2     1  UNL1       -0.4472
     16 C           3.6726    1.4665    6.1804 C.ar    1  UNL1        0.1834
     17 S           2.3132    2.4186    6.0600 S.2     1  UNL1       -0.0106
     18 C           4.6418   -1.7608    7.5933 C.ar    1  UNL1       -0.0177
     19 C           5.8265   -2.4646    7.8143 C.ar    1  UNL1       -0.0442
     20 C           7.0658   -1.8184    7.6911 C.ar    1  UNL1        0.0187
     21 BR          8.6590   -2.8152    7.9125 Br      1  UNL1       -0.0503
     22 C           7.1447   -0.4607    7.3736 C.ar    1  UNL1       -0.0371
     23 H           3.3546   -0.6667   -1.3280 H       1  UNL1        0.0660
     24 H           1.8574   -1.3448   -0.5761 H       1  UNL1        0.0660
     25 H           1.7582   -0.2425   -1.9572 H       1  UNL1        0.0660
     26 H           3.6998   -1.3998    0.9286 H       1  UNL1        0.0654
     27 H           5.0923   -1.1399    2.9257 H       1  UNL1        0.0626
     28 H           3.8966    2.9976    3.2427 H       1  UNL1        0.0626
     29 H           2.4869    2.7263    1.2429 H       1  UNL1        0.0654
     30 H           5.7625    2.2626    7.5639 H       1  UNL1        0.0633
     31 H           3.6792   -2.2574    7.6633 H       1  UNL1        0.0655
     32 H           5.7816   -3.5250    8.0535 H       1  UNL1        0.0630
     33 H           8.1054    0.0283    7.2473 H       1  UNL1        0.0636
@<TRIPOS>BOND
     1     1    23    1
     2     1    24    1
     3     1    25    1
     4     2     1    1
     5     3     2    1
     6     4     3   ar
     7     4    26    1
     8     5     4   ar
     9     5    27    1
    10     6     5   ar
    11     7     6   ar
    12     7    28    1
    13     8     7   ar
    14     8     3   ar
    15     8    29    1
    16     9     6    1
    17    10     9    2
    18    11     9    1
    19    12    11   ar
    20    12    30    1
    21    13    12   ar
    22    14    13   ar
    23    15    14   ar
    24    16    15   ar
    25    16    11   ar
    26    17    16    2
    27    18    14   ar
    28    18    31    1
    29    19    18   ar
    30    19    32    1
    31    20    19   ar
    32    21    20    1
    33    22    20   ar
    34    22    13   ar
    35    22    33    1
@<TRIPOS>MOLECULE
mol_52_akc_acsjmedchem5b01456
>52.sdf
 46 49 0 0 0
SMALL
GASTEIGER

@<TRIPOS>ATOM
      1 F           2.0896   -0.1591   -0.0019 F       1  UNL1       -0.2055
      2 C           0.7515   -0.1046    0.0029 C.ar    1  UNL1        0.1235
      3 C           0.0720   -0.0510    1.2076 C.ar    1  UNL1       -0.0247
      4 C          -1.3249    0.0141    1.2053 C.ar    1  UNL1       -0.0379
      5 C          -2.0681    0.0261    0.0110 C.ar    1  UNL1        0.0299
      6 C          -1.3389   -0.0320   -1.1889 C.ar    1  UNL1       -0.0379
      7 C           0.0596   -0.0973   -1.1975 C.ar    1  UNL1       -0.0247
      8 N          -3.4435    0.1306    0.0324 N.pl3   1  UNL1       -0.3269
      9 C          -4.2128    0.7124   -1.0721 C.3     1  UNL1        0.0281
     10 C          -5.2762    1.6808   -0.5009 C.3     1  UNL1        0.0319
     11 N          -6.0774    1.0648    0.5696 N.am    1  UNL1       -0.2824
     12 C          -5.2752    0.4295    1.6301 C.3     1  UNL1        0.0319
     13 C          -4.2509   -0.5591    1.0513 C.3     1  UNL1        0.0281
     14 C          -7.4409    1.0269    0.7126 C.2     1  UNL1        0.3076
     15 O          -8.0224    0.4679    1.6282 O.2     1  UNL1       -0.2522
     16 N          -8.1722    1.7045   -0.3032 N.am    1  UNL1       -0.2544
     17 C          -9.5583    1.6381   -0.4144 C.ar    1  UNL1        0.1221
     18 C         -10.4629    0.9281    0.3357 C.ar    1  UNL1        0.0071
     19 C         -11.7451    1.2071   -0.2156 C.ar    1  UNL1        0.1125
     20 N         -11.6310    2.0450   -1.2632 N.ar    1  UNL1       -0.1707
     21 N         -10.3152    2.2879   -1.3523 N.ar    1  UNL1       -0.2633
     22 C         -13.0273    0.6793    0.2667 C.ar    1  UNL1        0.0909
     23 N         -12.9603   -0.1501    1.3412 N.ar    1  UNL1       -0.2534
     24 C         -14.1271   -0.6335    1.8212 C.ar    1  UNL1        0.0283
     25 C         -15.3657   -0.3317    1.2814 C.ar    1  UNL1       -0.0436
     26 C         -15.4144    0.5129    0.1787 C.ar    1  UNL1       -0.0583
     27 C         -14.2293    1.0274   -0.3406 C.ar    1  UNL1       -0.0341
     28 H           0.6249   -0.0474    2.1411 H       1  UNL1        0.0647
     29 H          -1.8223    0.0986    2.1674 H       1  UNL1        0.0637
     30 H          -1.8483   -0.0542   -2.1480 H       1  UNL1        0.0637
     31 H           0.6067   -0.1441   -2.1330 H       1  UNL1        0.0647
     32 H          -3.5888    1.2817   -1.7693 H       1  UNL1        0.0479
     33 H          -4.7045   -0.0903   -1.6353 H       1  UNL1        0.0479
     34 H          -4.7762    2.5478   -0.0514 H       1  UNL1        0.0480
     35 H          -5.8920    2.0458   -1.3225 H       1  UNL1        0.0480
     36 H          -4.7591    1.2365    2.1643 H       1  UNL1        0.0480
     37 H          -5.9061   -0.0923    2.3567 H       1  UNL1        0.0480
     38 H          -4.7774   -1.3955    0.5729 H       1  UNL1        0.0479
     39 H          -3.6599   -0.9906    1.8648 H       1  UNL1        0.0479
     40 H          -7.6895    2.2781   -0.9701 H       1  UNL1        0.1578
     41 H         -10.2801    0.2796    1.1812 H       1  UNL1        0.0674
     42 H         -10.0045    2.9110   -2.0879 H       1  UNL1        0.1903
     43 H         -14.0383   -1.2906    2.6822 H       1  UNL1        0.0830
     44 H         -16.2722   -0.7444    1.7106 H       1  UNL1        0.0633
     45 H         -16.3674    0.7734   -0.2732 H       1  UNL1        0.0619
     46 H         -14.2487    1.6909   -1.1991 H       1  UNL1        0.0639
@<TRIPOS>BOND
     1     2     1    1
     2     3     2   ar
     3     3    28    1
     4     4     3   ar
     5     4    29    1
     6     5     4   ar
     7     6     5   ar
     8     6    30    1
     9     7     6   ar
    10     7     2   ar
    11     7    31    1
    12     8     5    1
    13     9     8    1
    14     9    32    1
    15     9    33    1
    16    10     9    1
    17    10    34    1
    18    10    35    1
    19    11    10    1
    20    12    11    1
    21    12    36    1
    22    12    37    1
    23    13    12    1
    24    13     8    1
    25    13    38    1
    26    13    39    1
    27    14    11   am
    28    15    14    2
    29    16    14   am
    30    16    40    1
    31    17    16    1
    32    18    17   ar
    33    18    41    1
    34    19    18   ar
    35    20    19   ar
    36    21    20   ar
    37    21    17   ar
    38    21    42    1
    39    22    19    1
    40    23    22   ar
    41    24    23   ar
    42    24    43    1
    43    25    24   ar
    44    25    44    1
    45    26    25   ar
    46    26    45    1
    47    27    26   ar
    48    27    22   ar
    49    27    46    1
@<TRIPOS>MOLECULE
mol_530_akc_ml200280r
>513.sdf
 32 35 0 0 0
SMALL
GASTEIGER

@<TRIPOS>ATOM
      1 O           1.9806    1.2028   -0.0410 O.2     1  UNL1       -0.2860
      2 C           2.2470    0.0050    0.0426 C.2     1  UNL1        0.2037
      3 C           1.9975   -0.7956    1.2475 C.ar    1  UNL1        0.0595
      4 C           1.9504   -2.1712    1.4173 C.ar    1  UNL1       -0.0438
      5 C           1.7965   -2.5524    2.7828 C.ar    1  UNL1       -0.0540
      6 C           1.6702   -1.4602    3.6089 C.ar    1  UNL1       -0.0236
      7 S           1.7380    0.0104    2.7421 S.2     1  UNL1       -0.0934
      8 C           2.9216   -0.6592   -1.1239 C.ar    1  UNL1        0.0731
      9 C           4.0064   -1.4054   -0.8515 C.ar    1  UNL1       -0.0355
     10 C           4.7084   -2.1714   -1.8785 C.ar    1  UNL1        0.0258
     11 C           5.7310   -3.1220   -1.5995 C.ar    1  UNL1       -0.0072
     12 C           6.1865   -3.4518   -0.2970 C.ar    1  UNL1       -0.0534
     13 C           7.1803   -4.4088   -0.0816 C.ar    1  UNL1       -0.0611
     14 C           7.7506   -5.0653   -1.1614 C.ar    1  UNL1       -0.0612
     15 C           7.3294   -4.7666   -2.4528 C.ar    1  UNL1       -0.0540
     16 C           6.3274   -3.8088   -2.6900 C.ar    1  UNL1       -0.0171
     17 C           5.9104   -3.5436   -4.0058 C.ar    1  UNL1       -0.0505
     18 C           4.9008   -2.6216   -4.2635 C.ar    1  UNL1       -0.0181
     19 C           4.3101   -1.9580   -3.1972 C.ar    1  UNL1        0.1370
     20 O           3.2537   -1.0782   -3.5068 O.2     1  UNL1       -0.4471
     21 C           2.4894   -0.4645   -2.5234 C.ar    1  UNL1        0.1834
     22 S           1.1752    0.3736   -3.1247 S.2     1  UNL1       -0.0106
     23 H           2.0558   -2.8891    0.6119 H       1  UNL1        0.0630
     24 H           1.7760   -3.5757    3.1394 H       1  UNL1        0.0623
     25 H           1.5351   -1.4525    4.6821 H       1  UNL1        0.0693
     26 H           4.3832   -1.4711    0.1623 H       1  UNL1        0.0633
     27 H           5.7701   -2.9749    0.5855 H       1  UNL1        0.0624
     28 H           7.5021   -4.6398    0.9310 H       1  UNL1        0.0618
     29 H           8.5245   -5.8118   -0.9983 H       1  UNL1        0.0618
     30 H           7.7888   -5.2957   -3.2850 H       1  UNL1        0.0624
     31 H           6.3638   -4.0698   -4.8435 H       1  UNL1        0.0625
     32 H           4.5713   -2.4342   -5.2814 H       1  UNL1        0.0655
@<TRIPOS>BOND
     1     2     1    2
     2     3     2    1
     3     4     3   ar
     4     4    23    1
     5     5     4   ar
     6     5    24    1
     7     6     5   ar
     8     6    25    1
     9     7     6   ar
    10     7     3   ar
    11     8     2    1
    12     9     8   ar
    13     9    26    1
    14    10     9   ar
    15    11    10   ar
    16    12    11   ar
    17    12    27    1
    18    13    12   ar
    19    13    28    1
    20    14    13   ar
    21    14    29    1
    22    15    14   ar
    23    15    30    1
    24    16    15   ar
    25    16    11   ar
    26    17    16   ar
    27    17    31    1
    28    18    17   ar
    29    18    32    1
    30    19    18   ar
    31    19    10   ar
    32    20    19   ar
    33    21    20   ar
    34    21     8   ar
    35    22    21    2
@<TRIPOS>MOLECULE
mol_531_akc_ejoc201101414
>514.sdf
 81 84 0 0 0
SMALL
GASTEIGER

@<TRIPOS>ATOM
      1 H          10.0043    5.5257    6.9480 H       1  UNL1        0.0654
      2 C          10.5041    5.0142    6.1324 C.ar    1  UNL1       -0.0197
      3 C           9.9203    5.0856    4.8619 C.ar    1  UNL1       -0.0551
      4 C          10.5045    4.4396    3.7672 C.ar    1  UNL1       -0.0470
      5 C           9.8389    4.3471    2.4143 C.3     1  UNL1       -0.0243
      6 C           8.8835    5.4811    2.0249 C.3     1  UNL1       -0.0116
      7 C           8.2520    5.2791    0.6342 C.3     1  UNL1        0.1071
      8 C           7.3969    4.0017    0.5879 C.3     1  UNL1        0.0216
      9 C           6.6948    3.7596   -0.7556 C.3     1  UNL1        0.1071
     10 C           5.8644    2.4648   -0.8107 C.3     1  UNL1       -0.0116
     11 C           4.8408    2.3496    0.3198 C.3     1  UNL1       -0.0242
     12 C           4.1003    1.0389    0.2618 C.ar    1  UNL1       -0.0436
     13 C           4.6643   -0.1013    0.8577 C.ar    1  UNL1       -0.0131
     14 C           4.0193   -1.3474    0.8219 C.ar    1  UNL1        0.1617
     15 O           4.5451   -2.4674    1.4085 O.3     1  UNL1       -0.4914
     16 C           5.8065   -2.3596    2.0570 C.3     1  UNL1        0.0790
     17 C           2.7838   -1.4451    0.1597 C.ar    1  UNL1        0.1615
     18 O           1.9843   -2.5451   -0.0104 O.3     1  UNL1       -0.4915
     19 C           2.4143   -3.7906    0.5171 C.3     1  UNL1        0.0790
     20 C           2.2295   -0.3006   -0.4414 C.ar    1  UNL1       -0.0160
     21 C           2.8791    0.9297   -0.3956 C.ar    1  UNL1       -0.0549
     22 O           7.6174    3.8212   -1.8680 O.3     1  UNL1       -0.4577
     23 C           8.6236    2.9168   -1.9756 C.2     1  UNL1        0.3394
     24 O           8.8734    1.9939   -1.2220 O.2     1  UNL1       -0.2450
     25 C           9.3810    3.1982   -3.2171 C.ar    1  UNL1        0.0591
     26 C           9.9598    2.1332   -3.9178 C.ar    1  UNL1       -0.0467
     27 C          10.6532    2.3782   -5.1069 C.ar    1  UNL1       -0.0470
     28 C          10.7768    3.6858   -5.5796 C.ar    1  UNL1        0.0179
     29 BR         11.6913    4.0176   -7.2001 Br      1  UNL1       -0.0503
     30 C          10.2266    4.7526   -4.8705 C.ar    1  UNL1       -0.0470
     31 C           9.5289    4.5087   -3.6878 C.ar    1  UNL1       -0.0467
     32 O           7.3659    6.4015    0.4080 O.3     1  UNL1       -0.4577
     33 C           7.6760    7.2538   -0.5993 C.2     1  UNL1        0.3394
     34 O           8.6477    7.1798   -1.3333 O.2     1  UNL1       -0.2450
     35 C           6.6278    8.3063   -0.7307 C.ar    1  UNL1        0.0591
     36 C           6.7408    9.2291   -1.7818 C.ar    1  UNL1       -0.0467
     37 C           5.7659   10.2143   -1.9681 C.ar    1  UNL1       -0.0470
     38 C           4.6761   10.2800   -1.1023 C.ar    1  UNL1        0.0179
     39 BR          3.3431   11.5935   -1.3683 Br      1  UNL1       -0.0503
     40 C           4.5578    9.3789   -0.0452 C.ar    1  UNL1       -0.0470
     41 C           5.5329    8.3930    0.1421 C.ar    1  UNL1       -0.0467
     42 C          11.6962    3.7290    3.9728 C.ar    1  UNL1       -0.0551
     43 C          12.2758    3.6565    5.2412 C.ar    1  UNL1       -0.0197
     44 C          11.6745    4.2840    6.3316 C.ar    1  UNL1        0.1201
     45 O          12.3109    4.0984    7.5277 O.3     1  UNL1       -0.4951
     46 C          11.6708    4.6370    8.6778 C.3     1  UNL1        0.0788
     47 H           8.9878    5.6332    4.7605 H       1  UNL1        0.0621
     48 H          10.6114    4.2701    1.6387 H       1  UNL1        0.0314
     49 H           9.2977    3.3948    2.4278 H       1  UNL1        0.0314
     50 H           8.0748    5.5806    2.7598 H       1  UNL1        0.0304
     51 H           9.4153    6.4414    2.0433 H       1  UNL1        0.0304
     52 H           9.0466    5.2282   -0.1183 H       1  UNL1        0.0735
     53 H           8.0140    3.1297    0.8183 H       1  UNL1        0.0337
     54 H           6.6394    4.0812    1.3756 H       1  UNL1        0.0337
     55 H           5.9985    4.5904   -0.9241 H       1  UNL1        0.0735
     56 H           5.3549    2.4193   -1.7831 H       1  UNL1        0.0304
     57 H           6.5206    1.5875   -0.7973 H       1  UNL1        0.0304
     58 H           5.3336    2.4033    1.2981 H       1  UNL1        0.0314
     59 H           4.1357    3.1871    0.2862 H       1  UNL1        0.0314
     60 H           5.6259    0.0151    1.3485 H       1  UNL1        0.0658
     61 H           6.5911   -2.0656    1.3515 H       1  UNL1        0.0660
     62 H           5.7556   -1.6701    2.9065 H       1  UNL1        0.0660
     63 H           6.0675   -3.3473    2.4483 H       1  UNL1        0.0660
     64 H           3.3655   -4.1063    0.0771 H       1  UNL1        0.0660
     65 H           2.4521   -3.7633    1.6106 H       1  UNL1        0.0660
     66 H           1.6692   -4.5420    0.2378 H       1  UNL1        0.0660
     67 H           1.2752   -0.3789   -0.9556 H       1  UNL1        0.0655
     68 H           2.4243    1.7954   -0.8731 H       1  UNL1        0.0621
     69 H           9.8608    1.1132   -3.5506 H       1  UNL1        0.0626
     70 H          11.0868    1.5470   -5.6576 H       1  UNL1        0.0629
     71 H          10.3300    5.7742   -5.2266 H       1  UNL1        0.0629
     72 H           9.1081    5.3474   -3.1365 H       1  UNL1        0.0626
     73 H           7.5868    9.1817   -2.4656 H       1  UNL1        0.0626
     74 H           5.8642   10.9179   -2.7913 H       1  UNL1        0.0629
     75 H           3.7106    9.4319    0.6344 H       1  UNL1        0.0629
     76 H           5.4211    7.6987    0.9712 H       1  UNL1        0.0626
     77 H          12.1698    3.1993    3.1483 H       1  UNL1        0.0621
     78 H          13.1896    3.0852    5.3832 H       1  UNL1        0.0654
     79 H          11.6717    5.7312    8.6436 H       1  UNL1        0.0660
     80 H          10.6537    4.2459    8.7918 H       1  UNL1        0.0660
     81 H          12.2429    4.3273    9.5572 H       1  UNL1        0.0660
@<TRIPOS>BOND
     1     2     1    1
     2     3     2   ar
     3     3    47    1
     4     4     3   ar
     5     5     4    1
     6     5    48    1
     7     5    49    1
     8     6     5    1
     9     6    50    1
    10     6    51    1
    11     7     6    1
    12     7    52    1
    13     8     7    1
    14     8    53    1
    15     8    54    1
    16    10     9    1
    17    10    56    1
    18    10    57    1
    19    11    10    1
    20    11    58    1
    21    11    59    1
    22    12    11    1
    23    13    12   ar
    24    13    60    1
    25    14    13   ar
    26    15    14    1
    27    16    15    1
    28    16    61    1
    29    16    62    1
    30    16    63    1
    31    17    14   ar
    32    18    17    1
    33    19    18    1
    34    19    64    1
    35    19    65    1
    36    19    66    1
    37    20    17   ar
    38    20    67    1
    39    21    20   ar
    40    21    12   ar
    41    21    68    1
    42    22     9    1
    43    23    22    1
    44    24    23    2
    45    25    23    1
    46    26    25   ar
    47    26    69    1
    48    27    26   ar
    49    27    70    1
    50    28    27   ar
    51    29    28    1
    52    30    28   ar
    53    30    71    1
    54    31    30   ar
    55    31    25   ar
    56    31    72    1
    57    32     7    1
    58    33    32    1
    59    34    33    2
    60    35    33    1
    61    36    35   ar
    62    36    73    1
    63    37    36   ar
    64    37    74    1
    65    38    37   ar
    66    39    38    1
    67    40    38   ar
    68    40    75    1
    69    41    40   ar
    70    41    35   ar
    71    41    76    1
    72    42     4   ar
    73    42    77    1
    74    43    42   ar
    75    43    78    1
    76    44    43   ar
    77    44     2   ar
    78    45    44    1
    79    46    45    1
    80    46    79    1
    81    46    80    1
    82    46    81    1
    83     9    55    1
    84     9     8    1
@<TRIPOS>MOLECULE
mol_532_akc_scitranslmed3003326
>515.sdf
 32 33 0 0 0
SMALL
GASTEIGER

@<TRIPOS>ATOM
      1 C           2.6200   -1.2656    0.5767 C.3     1  UNL1       -0.0135
      2 S           3.5242    0.2854    0.3294 S.3     1  UNL1       -0.1286
      3 C           3.8846    0.1853   -1.4146 C.ar    1  UNL1        0.0078
      4 C           3.4169    1.1924   -2.2638 C.ar    1  UNL1       -0.0449
      5 C           3.7547    1.1982   -3.6239 C.ar    1  UNL1       -0.0189
      6 C           4.5764    0.1993   -4.1452 C.ar    1  UNL1        0.1212
      7 O           4.9727    0.1029   -5.4530 O.3     1  UNL1       -0.4843
      8 C           5.1233    1.3471   -6.1422 C.3     1  UNL1        0.1472
      9 C           5.6397    1.0445   -7.5195 C.ar    1  UNL1        0.1522
     10 N           5.0098    1.3616   -8.6399 N.ar    1  UNL1       -0.2299
     11 C           5.8081    0.9346   -9.6657 C.ar    1  UNL1        0.1257
     12 C           6.9489    0.3605   -9.1689 C.ar    1  UNL1        0.3677
     13 N           6.8544    0.4365   -7.7982 N.ar    1  UNL1       -0.2708
     14 C           7.8256   -0.0103   -6.8263 C.3     1  UNL1        0.0191
     15 N           8.0326   -0.2017   -9.9045 N.pl3   1  UNL1        0.1004
     16 O           7.9370   -0.1646  -11.1357 O.co2   1  UNL1       -0.5747
     17 O           8.9779   -0.6771   -9.2684 O.2     1  UNL1        0.0431
     18 C           5.0211   -0.8237   -3.3049 C.ar    1  UNL1       -0.0189
     19 C           4.6880   -0.8266   -1.9446 C.ar    1  UNL1       -0.0449
     20 H           1.7174   -1.2856   -0.0397 H       1  UNL1        0.0344
     21 H           3.2447   -2.1309    0.3424 H       1  UNL1        0.0344
     22 H           2.3216   -1.3338    1.6272 H       1  UNL1        0.0344
     23 H           2.7844    1.9870   -1.8729 H       1  UNL1        0.0630
     24 H           3.3461    1.9891   -4.2443 H       1  UNL1        0.0654
     25 H           4.1575    1.8534   -6.2466 H       1  UNL1        0.0779
     26 H           5.8298    2.0009   -5.6162 H       1  UNL1        0.0779
     27 H           5.5204    1.0687  -10.7019 H       1  UNL1        0.0917
     28 H           7.9491   -1.0915   -6.9276 H       1  UNL1        0.0458
     29 H           8.7659    0.5174   -7.0063 H       1  UNL1        0.0458
     30 H           7.4933    0.2174   -5.8131 H       1  UNL1        0.0458
     31 H           5.6509   -1.6152   -3.7035 H       1  UNL1        0.0654
     32 H           5.0825   -1.6129   -1.3063 H       1  UNL1        0.0630
@<TRIPOS>UNITY_ATOM_ATTR
15 1
charge 1
16 1
charge -1
@<TRIPOS>BOND
     1     1    20    1
     2     1    21    1
     3     1    22    1
     4     2     1    1
     5     3     2    1
     6     4     3   ar
     7     4    23    1
     8     5     4   ar
     9     5    24    1
    10     6     5   ar
    11     7     6    1
    12     8     7    1
    13     8    25    1
    14     8    26    1
    15     9     8    1
    16    10     9   ar
    17    11    10   ar
    18    11    27    1
    19    12    11   ar
    20    13    12   ar
    21    13     9   ar
    22    14    13    1
    23    14    28    1
    24    14    29    1
    25    14    30    1
    26    15    12    1
    27    16    15    1
    28    17    15    2
    29    18     6   ar
    30    18    31    1
    31    19    18   ar
    32    19     3   ar
    33    19    32    1
@<TRIPOS>MOLECULE
mol_533_akc_jacdkr480
>516.sdf
 40 43 0 0 0
SMALL
GASTEIGER

@<TRIPOS>ATOM
      1 CL          1.2119   -0.2674   -0.1628 Cl      1  UNL1       -0.0595
      2 C           2.9169   -0.0399   -0.2450 C.ar    1  UNL1        0.1593
      3 N           3.5999   -1.2007   -0.2721 N.ar    1  UNL1       -0.1352
      4 N           4.9615   -1.1735   -0.3168 N.ar    1  UNL1       -0.1324
      5 C           5.6313   -0.0004   -0.3122 C.ar    1  UNL1        0.1491
      6 N           7.0439    0.0040   -0.2497 N.pl3   1  UNL1       -0.3271
      7 C           7.7041   -1.1703   -0.8141 C.3     1  UNL1        0.0121
      8 C           7.8497   -0.9989   -2.3278 C.3     1  UNL1       -0.0193
      9 C           8.7055    0.2225   -2.6651 C.3     1  UNL1        0.0256
     10 N           8.8192    0.4425   -4.0921 N.ar    1  UNL1       -0.3368
     11 C           9.8102   -0.0217   -4.9062 C.ar    1  UNL1        0.0240
     12 C           9.5106    0.4877   -6.1498 C.ar    1  UNL1        0.0454
     13 N           8.3734    1.2509   -6.1011 N.ar    1  UNL1       -0.2441
     14 C           7.9790    1.2099   -4.8466 C.ar    1  UNL1        0.0959
     15 C           4.9394    1.2310   -0.2731 C.ar    1  UNL1        0.0271
     16 C           5.6062    2.4793   -0.2716 C.ar    1  UNL1       -0.0429
     17 C           4.9134    3.6963   -0.2030 C.ar    1  UNL1       -0.0172
     18 C           3.5060    3.6835   -0.1842 C.ar    1  UNL1       -0.0172
     19 C           2.8099    4.8993   -0.0920 C.ar    1  UNL1       -0.0540
     20 C           3.4995    6.1080    0.0150 C.ar    1  UNL1       -0.0612
     21 C           4.8907    6.1193   -0.0023 C.ar    1  UNL1       -0.0612
     22 C           5.5946    4.9216   -0.1283 C.ar    1  UNL1       -0.0540
     23 C           2.8328    2.4523   -0.2323 C.ar    1  UNL1       -0.0432
     24 C           3.5311    1.2175   -0.2537 C.ar    1  UNL1        0.0246
     25 H           7.2936    0.1602    0.7271 H       1  UNL1        0.1475
     26 H           8.7022   -1.2497   -0.3678 H       1  UNL1        0.0462
     27 H           7.1892   -2.1077   -0.5740 H       1  UNL1        0.0462
     28 H           8.3112   -1.9000   -2.7496 H       1  UNL1        0.0297
     29 H           6.8626   -0.9042   -2.7973 H       1  UNL1        0.0297
     30 H           8.2900    1.1415   -2.2380 H       1  UNL1        0.0492
     31 H           9.7207    0.1059   -2.2672 H       1  UNL1        0.0492
     32 H          10.6176   -0.6488   -4.5561 H       1  UNL1        0.0825
     33 H          10.0579    0.3503   -7.0722 H       1  UNL1        0.0845
     34 H           7.1088    1.7072   -4.4434 H       1  UNL1        0.1029
     35 H           6.6942    2.5008   -0.3171 H       1  UNL1        0.0631
     36 H           1.7222    4.9131   -0.0801 H       1  UNL1        0.0624
     37 H           2.9493    7.0395    0.1199 H       1  UNL1        0.0618
     38 H           5.4295    7.0588    0.0902 H       1  UNL1        0.0618
     39 H           6.6821    4.9511   -0.1434 H       1  UNL1        0.0624
     40 H           1.7438    2.4572   -0.2338 H       1  UNL1        0.0631
@<TRIPOS>BOND
     1     2     1    1
     2     3     2   ar
     3     4     3   ar
     4     5     4   ar
     5     6     5    1
     6     6    25    1
     7     7     6    1
     8     7    26    1
     9     7    27    1
    10     8     7    1
    11     8    28    1
    12     8    29    1
    13     9     8    1
    14     9    30    1
    15     9    31    1
    16    10     9    1
    17    11    10   ar
    18    11    32    1
    19    12    11   ar
    20    12    33    1
    21    13    12   ar
    22    14    13   ar
    23    14    10   ar
    24    14    34    1
    25    15     5   ar
    26    16    15   ar
    27    16    35    1
    28    17    16   ar
    29    18    17   ar
    30    19    18   ar
    31    19    36    1
    32    20    19   ar
    33    20    37    1
    34    21    20   ar
    35    21    38    1
    36    22    21   ar
    37    22    17   ar
    38    22    39    1
    39    23    18   ar
    40    23    40    1
    41    24    23   ar
    42    24     2   ar
    43    24    15   ar
@<TRIPOS>MOLECULE
mol_534_akc_jacdkr480
>517.sdf
 34 37 0 0 0
SMALL
GASTEIGER

@<TRIPOS>ATOM
      1 CL          1.2208   -0.3005   -0.1083 Cl      1  UNL1       -0.0595
      2 C           2.9206   -0.0277   -0.1137 C.ar    1  UNL1        0.1593
      3 N           3.6383   -1.1705   -0.0958 N.ar    1  UNL1       -0.1352
      4 N           5.0041   -1.1090   -0.0678 N.ar    1  UNL1       -0.1323
      5 C           5.6419    0.0809   -0.0725 C.ar    1  UNL1        0.1504
      6 N           7.0441    0.1279    0.0449 N.pl3   1  UNL1       -0.3095
      7 C           7.7511   -1.1303   -0.1345 C.3     1  UNL1        0.0890
      8 N           9.1854   -0.9530    0.0615 N.ar    1  UNL1       -0.3207
      9 C          10.0705   -0.4200   -0.8375 C.ar    1  UNL1        0.0256
     10 C          11.2775   -0.4026   -0.1756 C.ar    1  UNL1        0.0454
     11 N          11.1407   -0.8962    1.0959 N.ar    1  UNL1       -0.2440
     12 C           9.8685   -1.2038    1.2162 C.ar    1  UNL1        0.0971
     13 C           4.9092    1.2931   -0.0901 C.ar    1  UNL1        0.0272
     14 C           5.5395    2.5607   -0.0654 C.ar    1  UNL1       -0.0429
     15 C           4.8187    3.7574   -0.0397 C.ar    1  UNL1       -0.0172
     16 C           3.4164    3.7184   -0.0597 C.ar    1  UNL1       -0.0172
     17 C           2.7060    4.9303    0.0100 C.ar    1  UNL1       -0.0540
     18 C           3.3808    6.1479    0.1196 C.ar    1  UNL1       -0.0612
     19 C           4.7711    6.1783    0.1275 C.ar    1  UNL1       -0.0612
     20 C           5.4902    4.9893    0.0345 C.ar    1  UNL1       -0.0540
     21 C           2.7705    2.4687   -0.1201 C.ar    1  UNL1       -0.0432
     22 C           3.4974    1.2443   -0.1149 C.ar    1  UNL1        0.0246
     23 H           7.4289    0.8316   -0.5756 H       1  UNL1        0.1492
     24 H           7.4209   -1.9000    0.5732 H       1  UNL1        0.0700
     25 H           7.6211   -1.5053   -1.1572 H       1  UNL1        0.0700
     26 H           9.7854   -0.1044   -1.8309 H       1  UNL1        0.0825
     27 H          12.2345   -0.0563   -0.5430 H       1  UNL1        0.0845
     28 H           9.3959   -1.5969    2.1077 H       1  UNL1        0.1029
     29 H           6.6243    2.6272   -0.0291 H       1  UNL1        0.0631
     30 H           1.6179    4.9313    0.0075 H       1  UNL1        0.0624
     31 H           2.8202    7.0736    0.2085 H       1  UNL1        0.0618
     32 H           5.2999    7.1232    0.2192 H       1  UNL1        0.0618
     33 H           6.5765    5.0290    0.0471 H       1  UNL1        0.0624
     34 H           1.6824    2.4483   -0.1430 H       1  UNL1        0.0631
@<TRIPOS>BOND
     1     2     1    1
     2     3     2   ar
     3     4     3   ar
     4     5     4   ar
     5     6     5    1
     6     6    23    1
     7     7     6    1
     8     7    24    1
     9     7    25    1
    10     8     7    1
    11     9     8   ar
    12     9    26    1
    13    10     9   ar
    14    10    27    1
    15    11    10   ar
    16    12    11   ar
    17    12     8   ar
    18    12    28    1
    19    13     5   ar
    20    14    13   ar
    21    14    29    1
    22    15    14   ar
    23    16    15   ar
    24    17    16   ar
    25    17    30    1
    26    18    17   ar
    27    18    31    1
    28    19    18   ar
    29    19    32    1
    30    20    19   ar
    31    20    15   ar
    32    20    33    1
    33    21    16   ar
    34    21    34    1
    35    22    21   ar
    36    22     2   ar
    37    22    13   ar
@<TRIPOS>MOLECULE
mol_535_akc_2012203646
>518.sdf
 122 126 0 0 0
SMALL
GASTEIGER

@<TRIPOS>ATOM
      1 C           7.8193   10.8093   10.1802 C.3     1  UNL1       -0.0349
      2 C           6.9979   11.0141   11.4516 C.3     1  UNL1        0.1005
      3 O           5.9738   11.9641   11.1423 O.3     1  UNL1       -0.3319
      4 C           5.0563   12.1624   12.2305 C.3     1  UNL1        0.2431
      5 O           4.4930   10.9490   12.7637 O.3     1  UNL1       -0.4594
      6 C           3.8607   10.1048   11.8869 C.ar    1  UNL1        0.1311
      7 C           3.4352   10.4402   10.6117 C.ar    1  UNL1        0.0235
      8 C           2.9811    9.4448    9.7424 C.ar    1  UNL1        0.1466
      9 C           2.9333    8.1077   10.1124 C.ar    1  UNL1        0.1101
     10 C           3.1970    7.7925   11.4538 C.ar    1  UNL1        0.1495
     11 O           3.1132    6.4683   11.9368 O.3     1  UNL1       -0.4251
     12 C           2.5305    6.2779   13.1946 C.2     1  UNL1        0.3092
     13 C           2.8206    4.8934   13.7015 C.3     1  UNL1        0.0336
     14 O           1.8835    7.1002   13.8320 O.2     1  UNL1       -0.2507
     15 C           3.6911    8.7892   12.3204 C.ar    1  UNL1        0.0236
     16 C           2.6956    7.1378    9.0145 C.ar    1  UNL1        0.2382
     17 O           2.4853    5.9530    9.2468 O.2     1  UNL1       -0.2830
     18 C           2.7570    7.6811    7.5897 C.ar    1  UNL1        0.2138
     19 O           2.9019    6.8705    6.4708 O.3     1  UNL1       -0.4520
     20 C           3.5798    5.6158    6.6185 C.3     1  UNL1        0.2435
     21 O           4.7082    5.5394    5.7289 O.3     1  UNL1       -0.3312
     22 C           4.5903    5.0048    4.4086 C.3     1  UNL1        0.1099
     23 C           4.6344    6.0938    3.3305 C.3     1  UNL1        0.0356
     24 C           5.9055    6.9196    3.1481 C.2     1  UNL1        0.1329
     25 C           7.1727    6.6423    3.9146 C.3     1  UNL1       -0.0060
     26 O           5.8948    7.8545    2.3355 O.2     1  UNL1       -0.2976
     27 C           3.4307    3.9998    4.1764 C.3     1  UNL1        0.1698
     28 O           3.8414    2.6700    4.6185 O.3     1  UNL1       -0.4550
     29 C           4.7809    1.9994    3.9085 C.2     1  UNL1        0.3044
     30 C           5.0837    0.6861    4.5697 C.3     1  UNL1        0.0332
     31 O           5.3308    2.4165    2.9005 O.2     1  UNL1       -0.2512
     32 C           2.1727    4.3103    4.9978 C.3     1  UNL1        0.1847
     33 O           1.4774    5.5071    4.5793 O.3     1  UNL1       -0.4537
     34 C           0.2745    5.2834    3.9885 C.2     1  UNL1        0.3044
     35 C          -0.7758    6.2424    4.4755 C.3     1  UNL1        0.0332
     36 O           0.0670    4.3757    3.1932 O.2     1  UNL1       -0.2512
     37 C           2.5336    4.4986    6.4788 C.3     1  UNL1        0.2048
     38 O           3.0183    3.2871    7.0961 O.3     1  UNL1       -0.4513
     39 C           2.0391    2.4417    7.5214 C.2     1  UNL1        0.3045
     40 C           2.6113    1.2688    8.2560 C.3     1  UNL1        0.0332
     41 O           0.8404    2.6055    7.3392 O.2     1  UNL1       -0.2512
     42 C           2.5785    9.0123    7.4456 C.ar    1  UNL1        0.1810
     43 O           2.5845    9.8878    8.5166 O.2     1  UNL1       -0.4507
     44 C           2.3451    9.7613    6.1725 C.ar    1  UNL1        0.0248
     45 C           1.6011   10.9596    6.2451 C.ar    1  UNL1       -0.0048
     46 C           1.4329   11.8026    5.1400 C.ar    1  UNL1        0.1744
     47 O           0.9047   13.1013    5.3030 O.3     1  UNL1       -0.4222
     48 C          -0.1393   13.3630    6.1922 C.2     1  UNL1        0.3093
     49 C          -0.3538   14.8457    6.2863 C.3     1  UNL1        0.0336
     50 O          -0.7573   12.5472    6.8646 O.2     1  UNL1       -0.2507
     51 C           1.9718   11.4313    3.9114 C.ar    1  UNL1        0.1738
     52 O           1.9847   12.2422    2.7554 O.3     1  UNL1       -0.4223
     53 C           0.8626   12.9443    2.3155 C.2     1  UNL1        0.3093
     54 C           1.2000   13.6322    1.0212 C.3     1  UNL1        0.0336
     55 O          -0.2452   12.9624    2.8318 O.2     1  UNL1       -0.2507
     56 C           2.6915   10.2368    3.8040 C.ar    1  UNL1       -0.0149
     57 C           2.8845    9.4188    4.9292 C.ar    1  UNL1       -0.0473
     58 C           5.7731   12.9481   13.3501 C.3     1  UNL1        0.2048
     59 O           5.8712   14.3554   13.0126 O.3     1  UNL1       -0.4513
     60 C           4.7453   15.0787   13.2753 C.2     1  UNL1        0.3045
     61 C           4.9233   16.5352   12.9743 C.3     1  UNL1        0.0332
     62 O           3.7099   14.6134   13.7340 O.2     1  UNL1       -0.2512
     63 C           7.1498   12.3330   13.6964 C.3     1  UNL1        0.1846
     64 O           8.0553   13.2724   14.3727 O.3     1  UNL1       -0.4537
     65 C           8.7226   14.2037   13.6485 C.2     1  UNL1        0.3044
     66 C           9.6851   14.9675   14.5309 C.3     1  UNL1        0.0332
     67 O           8.6567   14.3676   12.4367 O.2     1  UNL1       -0.2512
     68 C           7.8765   11.4672   12.6331 C.3     1  UNL1        0.1692
     69 O           8.6048   10.3925   13.3386 O.3     1  UNL1       -0.4550
     70 C           7.9809    9.2540   13.7462 C.2     1  UNL1        0.3044
     71 C           8.7552    8.5501   14.8189 C.3     1  UNL1        0.0332
     72 O           6.9080    8.8347   13.3398 O.2     1  UNL1       -0.2512
     73 H           8.6385   10.1020   10.3386 H       1  UNL1        0.0256
     74 H           7.1756   10.4192    9.3827 H       1  UNL1        0.0256
     75 H           8.2257   11.7578    9.8136 H       1  UNL1        0.0256
     76 H           6.5208   10.0550   11.6225 H       1  UNL1        0.0633
     77 H           4.2374   12.7809   11.8461 H       1  UNL1        0.1097
     78 H           3.4979   11.4557   10.2336 H       1  UNL1        0.0691
     79 H           3.1076    4.9552   14.7555 H       1  UNL1        0.0342
     80 H           1.9355    4.2641   13.5918 H       1  UNL1        0.0342
     81 H           3.6607    4.4506   13.1593 H       1  UNL1        0.0342
     82 H           3.9974    8.5330   13.3323 H       1  UNL1        0.0691
     83 H           4.0596    5.5438    7.5984 H       1  UNL1        0.1097
     84 H           5.5199    4.4424    4.2910 H       1  UNL1        0.0640
     85 H           4.4893    5.6166    2.3511 H       1  UNL1        0.0368
     86 H           3.8164    6.8011    3.4817 H       1  UNL1        0.0368
     87 H           8.0229    6.7123    3.2259 H       1  UNL1        0.0306
     88 H           7.2890    7.3954    4.6981 H       1  UNL1        0.0306
     89 H           7.2028    5.6490    4.3567 H       1  UNL1        0.0306
     90 H           3.1738    3.9344    3.1113 H       1  UNL1        0.0799
     91 H           4.8948   -0.1294    3.8686 H       1  UNL1        0.0342
     92 H           6.1240    0.6773    4.9043 H       1  UNL1        0.0342
     93 H           4.4439    0.5382    5.4463 H       1  UNL1        0.0342
     94 H           1.5045    3.4426    4.9230 H       1  UNL1        0.0813
     95 H          -1.0369    6.9578    3.6961 H       1  UNL1        0.0342
     96 H          -1.6575    5.6611    4.7663 H       1  UNL1        0.0342
     97 H          -0.4313    6.7744    5.3646 H       1  UNL1        0.0342
     98 H           1.6342    4.8315    7.0148 H       1  UNL1        0.0837
     99 H           2.3067    1.3182    9.3045 H       1  UNL1        0.0342
    100 H           2.2457    0.3465    7.7971 H       1  UNL1        0.0342
    101 H           3.7034    1.2674    8.2056 H       1  UNL1        0.0342
    102 H           1.1833   11.2616    7.2026 H       1  UNL1        0.0663
    103 H          -1.4261   15.0548    6.3033 H       1  UNL1        0.0342
    104 H           0.1176   15.2210    7.1988 H       1  UNL1        0.0342
    105 H           0.0780   15.3566    5.4221 H       1  UNL1        0.0342
    106 H           1.0491   12.9393    0.1904 H       1  UNL1        0.0342
    107 H           0.5537   14.5057    0.8939 H       1  UNL1        0.0342
    108 H           2.2358   13.9843    1.0299 H       1  UNL1        0.0342
    109 H           3.1498    9.9597    2.8568 H       1  UNL1        0.0656
    110 H           3.5046    8.5365    4.8169 H       1  UNL1        0.0626
    111 H           5.1837   12.8757   14.2747 H       1  UNL1        0.0837
    112 H           4.0597   16.8876   12.4022 H       1  UNL1        0.0342
    113 H           4.9991   17.0918   13.9123 H       1  UNL1        0.0342
    114 H           5.8210   16.7096   12.3769 H       1  UNL1        0.0342
    115 H           6.9177   11.6313   14.5082 H       1  UNL1        0.0813
    116 H          10.6025   14.3889   14.6687 H       1  UNL1        0.0342
    117 H           9.9312   15.9264   14.0639 H       1  UNL1        0.0342
    118 H           9.2237   15.1764   15.4978 H       1  UNL1        0.0342
    119 H           8.6984   12.0476   12.2067 H       1  UNL1        0.0799
    120 H           8.0433    8.0185   15.4618 H       1  UNL1        0.0342
    121 H           9.4546    7.8346   14.3840 H       1  UNL1        0.0342
    122 H           9.2796    9.2713   15.4502 H       1  UNL1        0.0342
@<TRIPOS>BOND
     1     1    73    1
     2     1    74    1
     3     1    75    1
     4     2     1    1
     5     2    76    1
     6     3     2    1
     7     4     3    1
     8     6     5    1
     9     7     6   ar
    10     7    78    1
    11     8     7   ar
    12     9     8   ar
    13    10     9   ar
    14    11    10    1
    15    12    11    1
    16    13    12    1
    17    13    79    1
    18    13    80    1
    19    13    81    1
    20    14    12    2
    21    15    10   ar
    22    15     6   ar
    23    15    82    1
    24    16     9   ar
    25    17    16    2
    26    18    16   ar
    27    19    18    1
    28    21    20    1
    29    22    21    1
    30    22    84    1
    31    23    22    1
    32    23    85    1
    33    23    86    1
    34    24    23    1
    35    25    24    1
    36    25    87    1
    37    25    88    1
    38    25    89    1
    39    26    24    2
    40    27    22    1
    41    29    28    1
    42    30    29    1
    43    30    91    1
    44    30    92    1
    45    30    93    1
    46    31    29    2
    47    32    27    1
    48    34    33    1
    49    35    34    1
    50    35    95    1
    51    35    96    1
    52    35    97    1
    53    36    34    2
    54    37    32    1
    55    37    20    1
    56    37    98    1
    57    38    37    1
    58    39    38    1
    59    40    39    1
    60    40    99    1
    61    40   100    1
    62    40   101    1
    63    41    39    2
    64    42    18   ar
    65    43    42   ar
    66    43     8   ar
    67    44    42    1
    68    45    44   ar
    69    45   102    1
    70    46    45   ar
    71    47    46    1
    72    48    47    1
    73    49    48    1
    74    49   103    1
    75    49   104    1
    76    49   105    1
    77    50    48    2
    78    51    46   ar
    79    52    51    1
    80    53    52    1
    81    54    53    1
    82    54   106    1
    83    54   107    1
    84    54   108    1
    85    55    53    2
    86    56    51   ar
    87    56   109    1
    88    57    56   ar
    89    57    44   ar
    90    57   110    1
    91    58     4    1
    92    58   111    1
    93    59    58    1
    94    60    59    1
    95    61    60    1
    96    61   112    1
    97    61   113    1
    98    61   114    1
    99    62    60    2
   100    63    58    1
   101    63   115    1
   102    64    63    1
   103    65    64    1
   104    66    65    1
   105    66   116    1
   106    66   117    1
   107    66   118    1
   108    67    65    2
   109    68    63    1
   110    68     2    1
   111    70    69    1
   112    71    70    1
   113    71   120    1
   114    71   121    1
   115    71   122    1
   116    72    70    2
   117     4     5    1
   118     4    77    1
   119    20    83    1
   120    20    19    1
   121    27    28    1
   122    27    90    1
   123    32    33    1
   124    32    94    1
   125    68    69    1
   126    68   119    1
@<TRIPOS>MOLECULE
mol_536_akc_jexppara201208016
>519.sdf
 19 18 0 0 0
SMALL
GASTEIGER

@<TRIPOS>ATOM
      1 C           6.0959   -7.3255   -2.7016 C.2     1  UNL1       -0.1018
      2 C           6.4792   -6.0424   -2.6936 C.2     1  UNL1       -0.0805
      3 C           6.6556   -5.2176   -1.4561 C.3     1  UNL1        0.0240
      4 S           5.5765   -3.7664   -1.5368 S.3     1  UNL1       -0.0569
      5 S           5.9629   -2.8284    0.2218 S.O     1  UNL1        0.0854
      6 O           5.2084   -1.5549   -0.0246 O.2     1  UNL1       -0.2456
      7 C           7.7476   -2.4607    0.0896 C.3     1  UNL1        0.0514
      8 C           8.1783   -1.4976    1.1546 C.2     1  UNL1       -0.0782
      9 C           9.1161   -1.7513    2.0775 C.2     1  UNL1       -0.1018
     10 H           5.9974   -7.8684   -3.6370 H       1  UNL1        0.0532
     11 H           5.8652   -7.8635   -1.7857 H       1  UNL1        0.0532
     12 H           6.7009   -5.5598   -3.6444 H       1  UNL1        0.0575
     13 H           6.4248   -5.7933   -0.5537 H       1  UNL1        0.0428
     14 H           7.7011   -4.9013   -1.4027 H       1  UNL1        0.0428
     15 H           8.2903   -3.4063    0.1791 H       1  UNL1        0.0452
     16 H           7.9464   -2.0298   -0.8963 H       1  UNL1        0.0452
     17 H           7.6935   -0.5215    1.1460 H       1  UNL1        0.0575
     18 H           9.6360   -2.7030    2.1266 H       1  UNL1        0.0532
     19 H           9.3861   -0.9969    2.8109 H       1  UNL1        0.0532
@<TRIPOS>BOND
     1     1    10    1
     2     1    11    1
     3     2     1    2
     4     2    12    1
     5     3     2    1
     6     3    13    1
     7     3    14    1
     8     4     3    1
     9     7     5    1
    10     7    15    1
    11     7    16    1
    12     8     7    1
    13     8    17    1
    14     9     8    2
    15     9    18    1
    16     9    19    1
    17     5     6    2
    18     5     4    1
@<TRIPOS>MOLECULE
mol_537_akc_157018012800389359
>520.sdf
 34 36 0 0 0
SMALL
GASTEIGER

@<TRIPOS>ATOM
      1 C           2.9584    0.3064    1.1456 C.3     1  UNL1       -0.0610
      2 C           2.4835   -0.9446    0.3967 C.3     1  UNL1       -0.0287
      3 C           0.9532   -0.9475    0.3589 C.3     1  UNL1       -0.0610
      4 C           3.0456   -1.0216   -1.0365 C.3     1  UNL1        0.0270
      5 N           4.4941   -1.0964   -1.0970 N.ar    1  UNL1       -0.3292
      6 C           5.2721    0.0298   -1.1954 C.ar    1  UNL1        0.0972
      7 N           6.5469   -0.2443   -1.1410 N.ar    1  UNL1       -0.2323
      8 C           6.6092   -1.6193   -1.0454 C.ar    1  UNL1        0.1289
      9 C           5.3301   -2.1959   -1.0620 C.ar    1  UNL1        0.0813
     10 C           5.1870   -3.6158   -1.0349 C.ar    1  UNL1        0.0261
     11 C           3.9606   -4.3198   -1.0528 C.ar    1  UNL1       -0.0505
     12 C           3.9483   -5.7152   -1.0568 C.ar    1  UNL1       -0.0610
     13 C           5.1461   -6.4184   -1.0395 C.ar    1  UNL1       -0.0597
     14 C           6.3566   -5.7233   -1.0109 C.ar    1  UNL1       -0.0356
     15 C           6.4102   -4.3383   -1.0040 C.ar    1  UNL1        0.0752
     16 N           7.6257   -3.7750   -0.9642 N.ar    1  UNL1       -0.2301
     17 C           7.7571   -2.4333   -0.9538 C.ar    1  UNL1        0.1445
     18 N           9.0410   -1.9066   -0.8737 N.pl3   1  UNL1       -0.3414
     19 H           2.5157    0.3534    2.1462 H       1  UNL1        0.0233
     20 H           4.0442    0.3080    1.2785 H       1  UNL1        0.0233
     21 H           2.6771    1.2200    0.6098 H       1  UNL1        0.0233
     22 H           2.8159   -1.8243    0.9618 H       1  UNL1        0.0313
     23 H           0.5689   -0.0860   -0.1994 H       1  UNL1        0.0233
     24 H           0.5737   -1.8574   -0.1159 H       1  UNL1        0.0233
     25 H           0.5386   -0.9004    1.3721 H       1  UNL1        0.0233
     26 H           2.6358   -1.8706   -1.5877 H       1  UNL1        0.0495
     27 H           2.7446   -0.1328   -1.6060 H       1  UNL1        0.0495
     28 H           4.8482    1.0248   -1.2683 H       1  UNL1        0.1029
     29 H           3.0065   -3.8112   -1.0639 H       1  UNL1        0.0625
     30 H           3.0045   -6.2549   -1.0749 H       1  UNL1        0.0618
     31 H           5.1473   -7.5053   -1.0433 H       1  UNL1        0.0618
     32 H           7.2903   -6.2828   -0.9934 H       1  UNL1        0.0639
     33 H           9.0904   -0.9505   -1.2074 H       1  UNL1        0.1438
     34 H           9.7348   -2.5647   -1.2000 H       1  UNL1        0.1438
@<TRIPOS>BOND
     1     1    19    1
     2     1    20    1
     3     1    21    1
     4     2     1    1
     5     2    22    1
     6     3     2    1
     7     3    23    1
     8     3    24    1
     9     3    25    1
    10     4     2    1
    11     4    26    1
    12     4    27    1
    13     5     4    1
    14     6     5   ar
    15     6    28    1
    16     7     6   ar
    17     8     7   ar
    18     9     8   ar
    19     9     5   ar
    20    10     9   ar
    21    11    10   ar
    22    11    29    1
    23    12    11   ar
    24    12    30    1
    25    13    12   ar
    26    13    31    1
    27    14    13   ar
    28    14    32    1
    29    15    14   ar
    30    15    10   ar
    31    16    15   ar
    32    17    16   ar
    33    17     8   ar
    34    18    17    1
    35    18    33    1
    36    18    34    1
@<TRIPOS>MOLECULE
mol_538_akc_s00436_011_2498_x
>521.sdf
 22 23 0 0 0
SMALL
GASTEIGER

@<TRIPOS>ATOM
      1 C           1.3393   -0.5148    0.7127 C.3     1  UNL1        0.0790
      2 O           2.4487   -0.0741   -0.0599 O.2     1  UNL1       -0.4911
      3 C           3.0927    1.0880    0.3237 C.2     1  UNL1        0.1708
      4 C           2.7251    1.8755    1.3450 C.2     1  UNL1        0.0312
      5 C           3.4625    3.0911    1.7301 C.2     1  UNL1        0.1903
      6 O           3.0425    3.8035    2.6327 O.2     1  UNL1       -0.2871
      7 C           4.7091    3.3968    1.0157 C.ar    1  UNL1        0.0327
      8 C           5.1038    2.6166   -0.0678 C.ar    1  UNL1        0.0361
      9 C           6.2905    2.9255   -0.7465 C.ar    1  UNL1       -0.0501
     10 C           7.0815    3.9971   -0.3252 C.ar    1  UNL1       -0.0610
     11 C           6.6890    4.7672    0.7692 C.ar    1  UNL1       -0.0610
     12 C           5.5003    4.4734    1.4370 C.ar    1  UNL1       -0.0502
     13 C           4.2933    1.4593   -0.4979 C.2     1  UNL1        0.2281
     14 O           4.6154    0.8207   -1.4932 O.2     1  UNL1       -0.2834
     15 H           1.6281   -0.6846    1.7556 H       1  UNL1        0.0660
     16 H           0.5131    0.2005    0.6479 H       1  UNL1        0.0660
     17 H           0.9956   -1.4680    0.3012 H       1  UNL1        0.0660
     18 H           1.8616    1.6753    1.9659 H       1  UNL1        0.0694
     19 H           6.6068    2.3285   -1.6008 H       1  UNL1        0.0625
     20 H           8.0066    4.2280   -0.8490 H       1  UNL1        0.0618
     21 H           7.3087    5.5967    1.1029 H       1  UNL1        0.0618
     22 H           5.1964    5.0792    2.2894 H       1  UNL1        0.0625
@<TRIPOS>BOND
     1     1    15    1
     2     1    16    1
     3     1    17    1
     4     2     1    1
     5     3     2    1
     6     4     3    2
     7     4    18    1
     8     5     4    1
     9     6     5    2
    10     7     5    1
    11     8     7   ar
    12     9     8   ar
    13     9    19    1
    14    10     9   ar
    15    10    20    1
    16    11    10   ar
    17    11    21    1
    18    12    11   ar
    19    12     7   ar
    20    12    22    1
    21    13     8    1
    22    13     3    1
    23    14    13    2
@<TRIPOS>MOLECULE
mol_539_akc_aac00700_11
>522.sdf
 39 41 0 0 0
SMALL
GASTEIGER

@<TRIPOS>ATOM
      1 C          -3.4665   -0.7757    0.1393 C.3     1  UNL1       -0.0223
      2 C          -2.0957   -0.1739    0.0632 C.ar    1  UNL1        0.0407
      3 N          -1.0612   -1.0379    0.0559 N.ar    1  UNL1       -0.2518
      4 C           0.1839   -0.5480   -0.0255 C.ar    1  UNL1        0.0730
      5 C           0.4683    0.8348   -0.0857 C.ar    1  UNL1        0.0212
      6 C           1.8264    1.2372   -0.1624 C.ar    1  UNL1       -0.0508
      7 C           2.8633    0.3051   -0.1850 C.ar    1  UNL1       -0.0610
      8 C           2.5646   -1.0474   -0.1440 C.ar    1  UNL1       -0.0597
      9 C           1.2331   -1.4567   -0.0642 C.ar    1  UNL1       -0.0357
     10 C          -0.6320    1.7389   -0.0747 C.ar    1  UNL1        0.0385
     11 N          -0.4072    3.1198   -0.2552 N.pl3   1  UNL1       -0.3348
     12 C          -1.5087    4.0662   -0.0974 C.3     1  UNL1        0.0861
     13 C          -0.9683    5.4977   -0.1534 C.2     1  UNL1        0.2343
     14 O          -0.5427    6.0398    0.8661 O.2     1  UNL1       -0.2738
     15 N          -1.0109    6.0538   -1.4169 N.am    1  UNL1       -0.2830
     16 C          -0.8512    7.4197   -1.7535 C.ar    1  UNL1        0.0520
     17 C          -0.4581    8.3883   -0.8240 C.ar    1  UNL1       -0.0377
     18 C          -0.4445    9.7419   -1.1648 C.ar    1  UNL1       -0.0415
     19 C          -0.8191   10.1419   -2.4441 C.ar    1  UNL1        0.0425
     20 CL         -0.8686   11.8160   -2.8333 Cl      1  UNL1       -0.0835
     21 C          -1.1677    9.1950   -3.4029 C.ar    1  UNL1       -0.0232
     22 C          -1.1708    7.8407   -3.0598 C.ar    1  UNL1        0.0635
     23 CL         -1.6361    6.6962   -4.2733 Cl      1  UNL1       -0.0816
     24 C          -1.9222    1.2013   -0.0188 C.ar    1  UNL1       -0.0192
     25 H          -3.6466   -1.3978   -0.7430 H       1  UNL1        0.0292
     26 H          -3.5515   -1.3977    1.0359 H       1  UNL1        0.0292
     27 H          -4.2472   -0.0098    0.1829 H       1  UNL1        0.0292
     28 H           2.0929    2.2892   -0.2114 H       1  UNL1        0.0625
     29 H           3.8965    0.6383   -0.2408 H       1  UNL1        0.0618
     30 H           3.3595   -1.7876   -0.1762 H       1  UNL1        0.0618
     31 H           1.0037   -2.5196   -0.0383 H       1  UNL1        0.0639
     32 H           0.4178    3.4253    0.2611 H       1  UNL1        0.1466
     33 H          -2.2570    3.9324   -0.8873 H       1  UNL1        0.0557
     34 H          -2.0054    3.9451    0.8728 H       1  UNL1        0.0557
     35 H          -1.2677    5.4412   -2.1893 H       1  UNL1        0.1549
     36 H          -0.1578    8.1245    0.1869 H       1  UNL1        0.0637
     37 H          -0.1576   10.4768   -0.4167 H       1  UNL1        0.0633
     38 H          -1.4548    9.5113   -4.4012 H       1  UNL1        0.0647
     39 H          -2.8018    1.8328   -0.0257 H       1  UNL1        0.0654
@<TRIPOS>BOND
     1     1    25    1
     2     1    26    1
     3     1    27    1
     4     2     1    1
     5     3     2   ar
     6     4     3   ar
     7     5     4   ar
     8     6     5   ar
     9     6    28    1
    10     7     6   ar
    11     7    29    1
    12     8     7   ar
    13     8    30    1
    14     9     8   ar
    15     9     4   ar
    16     9    31    1
    17    10     5   ar
    18    11    10    1
    19    11    32    1
    20    12    11    1
    21    12    33    1
    22    12    34    1
    23    13    12    1
    24    14    13    2
    25    15    13   am
    26    15    35    1
    27    16    15    1
    28    17    16   ar
    29    17    36    1
    30    18    17   ar
    31    18    37    1
    32    19    18   ar
    33    20    19    1
    34    21    19   ar
    35    21    38    1
    36    22    21   ar
    37    22    16   ar
    38    23    22    1
    39    24    10   ar
    40    24     2   ar
    41    24    39    1
@<TRIPOS>MOLECULE
mol_53_akc_molecules18044718
>53.sdf
 39 41 0 0 0
SMALL
GASTEIGER

@<TRIPOS>ATOM
      1 O           1.8686    0.5320   -1.7361 O.co2   1  UNL1       -0.6178
      2 N           2.9106    0.3058   -1.0220 N.ar    1  UNL1       -0.1385
      3 C           3.3193    1.2976   -0.1244 C.ar    1  UNL1        0.3748
      4 N           2.5073    2.4746   -0.1042 N.am    1  UNL1       -0.2247
      5 C           3.0465    3.7173   -0.4133 C.2     1  UNL1        0.2246
      6 O           4.2530    3.8995   -0.5327 O.2     1  UNL1       -0.2750
      7 C           1.9855    4.8157   -0.6287 C.3     1  UNL1        0.0360
      8 C           1.0572    4.4783   -1.8085 C.3     1  UNL1       -0.0419
      9 C           0.0211    5.5701   -2.0654 C.3     1  UNL1       -0.0524
     10 C           0.6732    6.9291   -2.2759 C.3     1  UNL1       -0.0530
     11 C           1.5890    7.2868   -1.1103 C.3     1  UNL1       -0.0524
     12 C           2.6304    6.1960   -0.8477 C.3     1  UNL1       -0.0419
     13 C           4.4152    1.0685    0.7160 C.ar    1  UNL1        0.3866
     14 C           4.8005    1.9834    1.7399 C.1     1  UNL1        0.1788
     15 N           5.0516    2.7296    2.5959 N.1     1  UNL1       -0.1844
     16 N           5.0943   -0.1434    0.6715 N.ar    1  UNL1       -0.1424
     17 O           6.0474   -0.3960    1.4823 O.co2   1  UNL1       -0.6182
     18 C           4.7148   -1.1329   -0.2684 C.ar    1  UNL1        0.2945
     19 C           3.6289   -0.8968   -1.1350 C.ar    1  UNL1        0.2936
     20 C           3.2797   -1.8758   -2.0922 C.ar    1  UNL1        0.0193
     21 C           3.9873   -3.0763   -2.1809 C.ar    1  UNL1       -0.0367
     22 C           5.0368   -3.3248   -1.3037 C.ar    1  UNL1        0.0477
     23 CL          5.8963   -4.8095   -1.3973 Cl      1  UNL1       -0.0833
     24 C           5.3973   -2.3699   -0.3533 C.ar    1  UNL1        0.0362
     25 H           1.6229    2.2875   -0.5772 H       1  UNL1        0.1606
     26 H           1.3898    4.8620    0.2933 H       1  UNL1        0.0394
     27 H           1.6572    4.3213   -2.7144 H       1  UNL1        0.0272
     28 H           0.5168    3.5430   -1.6312 H       1  UNL1        0.0272
     29 H          -0.5779    5.3080   -2.9451 H       1  UNL1        0.0265
     30 H          -0.6699    5.6235   -1.2149 H       1  UNL1        0.0265
     31 H           1.2503    6.9186   -3.2086 H       1  UNL1        0.0265
     32 H          -0.1019    7.6960   -2.3898 H       1  UNL1        0.0265
     33 H           2.0922    8.2374   -1.3216 H       1  UNL1        0.0265
     34 H           0.9846    7.4408   -0.2078 H       1  UNL1        0.0265
     35 H           3.2294    6.4740    0.0275 H       1  UNL1        0.0272
     36 H           3.3235    6.1547   -1.6981 H       1  UNL1        0.0272
     37 H           2.4527   -1.6936   -2.7793 H       1  UNL1        0.0686
     38 H           3.7119   -3.8129   -2.9345 H       1  UNL1        0.0634
     39 H           6.2208   -2.5793    0.3316 H       1  UNL1        0.0701
@<TRIPOS>UNITY_ATOM_ATTR
1 1
charge -1
2 1
charge 1
16 1
charge 1
17 1
charge -1
@<TRIPOS>BOND
     1     2     1    1
     2     3     2   ar
     3     4     3    1
     4     4    25    1
     5     5     4   am
     6     6     5    2
     7     7     5    1
     8     7    26    1
     9     8     7    1
    10     8    27    1
    11     8    28    1
    12     9     8    1
    13     9    29    1
    14     9    30    1
    15    10     9    1
    16    10    31    1
    17    10    32    1
    18    11    10    1
    19    11    33    1
    20    11    34    1
    21    12    11    1
    22    12     7    1
    23    12    35    1
    24    12    36    1
    25    13     3   ar
    26    14    13    1
    27    15    14    3
    28    16    13   ar
    29    17    16    1
    30    18    16   ar
    31    19    18   ar
    32    19     2   ar
    33    20    19   ar
    34    20    37    1
    35    21    20   ar
    36    21    38    1
    37    22    21   ar
    38    23    22    1
    39    24    22   ar
    40    24    18   ar
    41    24    39    1
@<TRIPOS>MOLECULE
mol_540_akc_jbmc201109025
>523.sdf
 48 52 0 0 0
SMALL
GASTEIGER

@<TRIPOS>ATOM
      1 H           0.9838   -0.2494    0.0387 H       1  UNL1        0.0371
      2 C           2.0787   -0.1706    0.0997 C.3     1  UNL1        0.0107
      3 C           2.5226    0.2046    1.5149 C.3     1  UNL1       -0.0401
      4 C           2.0780    1.6044    1.8757 C.3     1  UNL1       -0.0267
      5 C           2.4185    2.6174    0.8137 C.ar    1  UNL1       -0.0423
      6 C           2.4269    3.9728    1.1806 C.ar    1  UNL1       -0.0583
      7 C           2.3939    4.9672    0.2090 C.ar    1  UNL1       -0.0615
      8 C           2.3159    4.6129   -1.1322 C.ar    1  UNL1       -0.0614
      9 C           2.3970    3.2699   -1.5050 C.ar    1  UNL1       -0.0565
     10 C           2.5208    2.2533   -0.5436 C.ar    1  UNL1       -0.0216
     11 C           2.6099    0.8105   -0.9909 C.3     1  UNL1        0.0782
     12 H           1.9215    0.7139   -1.8478 H       1  UNL1        0.0574
     13 N           3.8948    0.1758   -1.4710 N.pl3   1  UNL1       -0.1948
     14 C           3.8540   -1.2081   -1.0992 C.ar    1  UNL1        0.0555
     15 C           4.6314   -2.2615   -1.5383 C.ar    1  UNL1       -0.0388
     16 C           4.3208   -3.5538   -1.1083 C.ar    1  UNL1       -0.0599
     17 C           3.2258   -3.7884   -0.2698 C.ar    1  UNL1       -0.0614
     18 C           2.4200   -2.7292    0.1469 C.ar    1  UNL1       -0.0564
     19 C           2.7483   -1.4533   -0.2847 C.ar    1  UNL1       -0.0195
     20 S           5.3039    0.9469   -1.9283 S.O2    1  UNL1        0.0752
     21 O           6.1653    0.0228   -2.6613 O.2     1  UNL1       -0.1498
     22 O           4.9706    2.2038   -2.5597 O.2     1  UNL1       -0.1498
     23 C           6.1889    1.3242   -0.4223 C.ar    1  UNL1        0.1088
     24 C           7.0086    0.3615    0.1749 C.ar    1  UNL1       -0.0348
     25 C           7.6498    0.6498    1.3859 C.ar    1  UNL1       -0.0570
     26 C           7.4872    1.9016    1.9925 C.ar    1  UNL1       -0.0503
     27 C           7.9185    2.1225    3.4149 C.3     1  UNL1       -0.0397
     28 C           6.7874    2.9036    1.3089 C.ar    1  UNL1       -0.0570
     29 C           6.1475    2.6206    0.0982 C.ar    1  UNL1       -0.0348
     30 H           3.6151    0.1423    1.6088 H       1  UNL1        0.0275
     31 H           2.1083   -0.5071    2.2408 H       1  UNL1        0.0275
     32 H           2.5120    1.8883    2.8412 H       1  UNL1        0.0313
     33 H           0.9855    1.6119    1.9978 H       1  UNL1        0.0313
     34 H           2.4113    4.2571    2.2309 H       1  UNL1        0.0620
     35 H           2.3802    6.0137    0.5002 H       1  UNL1        0.0618
     36 H           2.1981    5.3803   -1.8929 H       1  UNL1        0.0618
     37 H           2.3464    3.0186   -2.5641 H       1  UNL1        0.0621
     38 H           5.4545   -2.1275   -2.2329 H       1  UNL1        0.0637
     39 H           4.9300   -4.3911   -1.4426 H       1  UNL1        0.0618
     40 H           2.9969   -4.7990    0.0559 H       1  UNL1        0.0618
     41 H           1.5672   -2.9017    0.7961 H       1  UNL1        0.0621
     42 H           7.1469   -0.6151   -0.2828 H       1  UNL1        0.0637
     43 H           8.2505   -0.1178    1.8685 H       1  UNL1        0.0621
     44 H           7.0786    1.8706    4.0736 H       1  UNL1        0.0278
     45 H           8.7690    1.4903    3.6877 H       1  UNL1        0.0278
     46 H           8.1983    3.1648    3.5980 H       1  UNL1        0.0278
     47 H           6.7064    3.9026    1.7301 H       1  UNL1        0.0621
     48 H           5.6055    3.4109   -0.4162 H       1  UNL1        0.0637
@<TRIPOS>BOND
     1     2     1    1
     2     3     2    1
     3     3    30    1
     4     3    31    1
     5     4     3    1
     6     4    32    1
     7     4    33    1
     8     5     4    1
     9     6     5   ar
    10     6    34    1
    11     7     6   ar
    12     7    35    1
    13     8     7   ar
    14     8    36    1
    15     9     8   ar
    16     9    37    1
    17    10     9   ar
    18    10     5   ar
    19    11    10    1
    20    11     2    1
    21    11    12    1
    22    13    11    1
    23    14    13    1
    24    15    14   ar
    25    15    38    1
    26    16    15   ar
    27    16    39    1
    28    17    16   ar
    29    17    40    1
    30    18    17   ar
    31    18    41    1
    32    19    18   ar
    33    19     2    1
    34    19    14   ar
    35    20    13    1
    36    21    20    2
    37    22    20    2
    38    23    20    1
    39    24    23   ar
    40    24    42    1
    41    25    24   ar
    42    25    43    1
    43    26    25   ar
    44    27    26    1
    45    27    44    1
    46    27    45    1
    47    27    46    1
    48    28    26   ar
    49    28    47    1
    50    29    28   ar
    51    29    23   ar
    52    29    48    1
@<TRIPOS>MOLECULE
mol_542_akc_ptr3404
>525.sdf
 59 61 0 0 0
SMALL
GASTEIGER

@<TRIPOS>ATOM
      1 C          13.5384    1.3905    3.6201 C.3     1  UNL1       -0.0440
      2 C          12.5660    1.0984    2.5132 C.2     1  UNL1       -0.0796
      3 C          11.1354    1.4819    2.7805 C.3     1  UNL1       -0.0440
      4 C          12.9650    0.5253    1.3614 C.2     1  UNL1       -0.0850
      5 C          12.0869    0.2875    0.1639 C.3     1  UNL1       -0.0308
      6 C          11.4551   -1.1086    0.1355 C.3     1  UNL1       -0.0286
      7 C          10.5012   -1.3898   -1.0139 C.2     1  UNL1       -0.0759
      8 C          10.1862   -0.3235   -2.0307 C.3     1  UNL1       -0.0438
      9 C           9.9326   -2.6144   -1.1037 C.2     1  UNL1       -0.0805
     10 C           8.9593   -3.0651   -2.1616 C.3     1  UNL1       -0.0023
     11 C           9.4455   -4.2591   -2.9509 C.ar    1  UNL1        0.0400
     12 C           9.0805   -5.5617   -2.5768 C.ar    1  UNL1        0.1273
     13 O           8.3303   -5.7397   -1.4471 O.3     1  UNL1       -0.5062
     14 C           9.4485   -6.6683   -3.3417 C.ar    1  UNL1        0.0228
     15 C          10.2015   -6.4818   -4.4981 C.ar    1  UNL1        0.1389
     16 O          10.4445   -7.6021   -5.2532 O.3     1  UNL1       -0.4828
     17 C          10.7745   -7.3198   -6.6323 C.3     1  UNL1        0.1323
     18 C          11.9656   -6.3659   -6.6665 C.3     1  UNL1        0.0520
     19 C          11.5584   -5.0830   -6.0005 C.2     1  UNL1        0.1740
     20 O          11.9919   -3.9871   -6.3441 O.2     1  UNL1       -0.2917
     21 C          10.6528   -5.2070   -4.8398 C.ar    1  UNL1        0.1009
     22 C          10.2645   -4.0969   -4.0815 C.ar    1  UNL1        0.1378
     23 O          10.6524   -2.8281   -4.4286 O.3     1  UNL1       -0.5055
     24 C           9.5455   -6.9310   -7.4614 C.ar    1  UNL1       -0.0033
     25 C           9.6313   -6.0645   -8.5706 C.ar    1  UNL1       -0.0514
     26 C           8.5038   -5.7471   -9.3386 C.ar    1  UNL1       -0.0162
     27 C           7.2786   -6.3048   -9.0083 C.ar    1  UNL1        0.1582
     28 O           6.1455   -6.0401   -9.7253 O.3     1  UNL1       -0.5033
     29 C           7.1760   -7.1691   -7.9249 C.ar    1  UNL1        0.1586
     30 O           5.9668   -7.7186   -7.6064 O.3     1  UNL1       -0.5033
     31 C           8.2905   -7.4911   -7.1586 C.ar    1  UNL1       -0.0099
     32 H          13.5326    2.4616    3.8495 H       1  UNL1        0.0274
     33 H          13.2655    0.8371    4.5231 H       1  UNL1        0.0274
     34 H          14.5641    1.1161    3.3523 H       1  UNL1        0.0274
     35 H          10.7990    2.2535    2.0809 H       1  UNL1        0.0274
     36 H          10.4798    0.6083    2.6936 H       1  UNL1        0.0274
     37 H          11.0113    1.8789    3.7920 H       1  UNL1        0.0274
     38 H          14.0104    0.2487    1.2333 H       1  UNL1        0.0572
     39 H          11.3047    1.0545    0.1370 H       1  UNL1        0.0310
     40 H          12.6978    0.4372   -0.7357 H       1  UNL1        0.0310
     41 H          12.2600   -1.8560    0.1138 H       1  UNL1        0.0313
     42 H          10.9073   -1.2645    1.0753 H       1  UNL1        0.0313
     43 H          10.5209   -0.6309   -3.0244 H       1  UNL1        0.0274
     44 H           9.1079   -0.1283   -2.0579 H       1  UNL1        0.0274
     45 H          10.6622    0.6378   -1.8347 H       1  UNL1        0.0274
     46 H          10.1638   -3.3623   -0.3473 H       1  UNL1        0.0575
     47 H           8.0052   -3.3007   -1.6719 H       1  UNL1        0.0358
     48 H           8.7037   -2.2648   -2.8641 H       1  UNL1        0.0358
     49 H           8.1496   -6.6857   -1.3255 H       1  UNL1        0.2921
     50 H           9.1327   -7.6701   -3.0680 H       1  UNL1        0.0691
     51 H          11.1147   -8.2762   -7.0497 H       1  UNL1        0.0789
     52 H          12.8102   -6.7761   -6.0984 H       1  UNL1        0.0385
     53 H          12.3073   -6.1650   -7.6849 H       1  UNL1        0.0385
     54 H          11.2572   -2.8829   -5.2014 H       1  UNL1        0.2922
     55 H          10.5761   -5.6141   -8.8662 H       1  UNL1        0.0623
     56 H           8.6092   -5.0717  -10.1820 H       1  UNL1        0.0655
     57 H           6.3792   -5.4308  -10.4470 H       1  UNL1        0.2923
     58 H           5.3485   -7.3462   -8.2678 H       1  UNL1        0.2923
     59 H           8.1698   -8.1771   -6.3237 H       1  UNL1        0.0659
@<TRIPOS>BOND
     1     1    32    1
     2     1    33    1
     3     1    34    1
     4     2     1    1
     5     3     2    1
     6     3    35    1
     7     3    36    1
     8     3    37    1
     9     4     2    2
    10     4    38    1
    11     5     4    1
    12     5    39    1
    13     5    40    1
    14     6     5    1
    15     6    41    1
    16     6    42    1
    17     7     6    1
    18     8     7    1
    19     8    43    1
    20     8    44    1
    21     8    45    1
    22     9     7    2
    23     9    46    1
    24    10     9    1
    25    10    47    1
    26    10    48    1
    27    11    10    1
    28    12    11   ar
    29    13    12    1
    30    13    49    1
    31    14    12   ar
    32    14    50    1
    33    15    14   ar
    34    16    15    1
    35    17    16    1
    36    17    51    1
    37    18    17    1
    38    18    52    1
    39    18    53    1
    40    19    18    1
    41    20    19    2
    42    21    19    1
    43    21    15   ar
    44    22    21   ar
    45    22    11   ar
    46    23    22    1
    47    23    54    1
    48    24    17    1
    49    25    24   ar
    50    25    55    1
    51    26    25   ar
    52    26    56    1
    53    27    26   ar
    54    28    27    1
    55    28    57    1
    56    29    27   ar
    57    30    29    1
    58    30    58    1
    59    31    29   ar
    60    31    24   ar
    61    31    59    1
@<TRIPOS>MOLECULE
mol_543_akc_jejmech201104054
>526.sdf
 30 31 0 0 0
SMALL
GASTEIGER

@<TRIPOS>ATOM
      1 C           0.2650    3.1078    1.8421 C.3     1  UNL1        0.0000
      2 SE          0.2124    2.3769    0.0306 Se      1  UNL1        0.0000
      3 SE         -2.0670    1.6637    0.2559 Se      1  UNL1        0.0000
      4 C          -2.7520    3.4882    0.1193 C.3     1  UNL1        0.0000
      5 C          -4.2551    3.5189    0.1368 C.ar    1  UNL1        0.0000
      6 C          -4.9358    4.1262    1.2082 C.ar    1  UNL1        0.0000
      7 C          -6.3315    4.1805    1.2188 C.ar    1  UNL1        0.0000
      8 C          -7.0600    3.6352    0.1591 C.ar    1  UNL1        0.0000
      9 C          -6.3932    3.0289   -0.9094 C.ar    1  UNL1        0.0000
     10 C          -4.9949    2.9664   -0.9213 C.ar    1  UNL1        0.0000
     11 C           1.6327    3.6344    2.1879 C.ar    1  UNL1        0.0000
     12 C           1.8170    5.0108    2.4199 C.ar    1  UNL1        0.0000
     13 C           3.0762    5.5047    2.7643 C.ar    1  UNL1        0.0000
     14 C           4.1593    4.6306    2.8897 C.ar    1  UNL1        0.0000
     15 C           3.9835    3.2626    2.6615 C.ar    1  UNL1        0.0000
     16 C           2.7261    2.7635    2.3070 C.ar    1  UNL1        0.0000
     17 H          -0.0240    2.3322    2.5814 H       1  UNL1        0.0000
     18 H          -0.4520    3.9459    1.8864 H       1  UNL1        0.0000
     19 H          -2.3848    4.0515    0.9940 H       1  UNL1        0.0000
     20 H          -2.3895    3.9701   -0.8125 H       1  UNL1        0.0000
     21 H          -4.3880    4.5580    2.0371 H       1  UNL1        0.0000
     22 H          -6.8467    4.6487    2.0477 H       1  UNL1        0.0000
     23 H          -8.1412    3.6858    0.1669 H       1  UNL1        0.0000
     24 H          -6.9607    2.6119   -1.7309 H       1  UNL1        0.0000
     25 H          -4.4898    2.5007   -1.7583 H       1  UNL1        0.0000
     26 H           0.9874    5.7028    2.3323 H       1  UNL1        0.0000
     27 H           3.2113    6.5647    2.9403 H       1  UNL1        0.0000
     28 H           5.1332    5.0176    3.1648 H       1  UNL1        0.0000
     29 H           4.8237    2.5894    2.7635 H       1  UNL1        0.0000
     30 H           2.6005    1.7013    2.1429 H       1  UNL1        0.0000
@<TRIPOS>BOND
     1     1    17    1
     2     1    18    1
     3     2     1    1
     4     3     2    1
     5     4     3    1
     6     4    19    1
     7     4    20    1
     8     5     4    1
     9     6     5   ar
    10     6    21    1
    11     7     6   ar
    12     7    22    1
    13     8     7   ar
    14     8    23    1
    15     9     8   ar
    16     9    24    1
    17    10     9   ar
    18    10     5   ar
    19    10    25    1
    20    11     1    1
    21    12    11   ar
    22    12    26    1
    23    13    12   ar
    24    13    27    1
    25    14    13   ar
    26    14    28    1
    27    15    14   ar
    28    15    29    1
    29    16    15   ar
    30    16    11   ar
    31    16    30    1
@<TRIPOS>MOLECULE
mol_544_akc_jbmcl201105076
>527.sdf
 48 52 0 0 0
SMALL
GASTEIGER

@<TRIPOS>ATOM
      1 C           6.5994    0.0043    0.3314 C.3     1  UNL1       -0.0572
      2 C           5.1059   -0.1928    0.0797 C.3     1  UNL1       -0.0028
      3 C           4.3799    1.1475   -0.0321 C.3     1  UNL1       -0.0572
      4 C           4.8511   -1.0460   -1.1201 C.ar    1  UNL1        0.0647
      5 C           4.1852   -2.2322   -1.2585 C.ar    1  UNL1        0.1167
      6 N           3.6054   -2.9270   -0.2578 N.ar    1  UNL1       -0.2319
      7 C           3.0160   -4.0383   -0.7591 C.ar    1  UNL1        0.1189
      8 N           2.9530   -4.4865   -2.0479 N.ar    1  UNL1       -0.2187
      9 C           3.5770   -3.8038   -3.0607 C.ar    1  UNL1        0.1503
     10 N           3.6056   -4.2929   -4.3678 N.pl3   1  UNL1       -0.3217
     11 C           3.4736   -5.7346   -4.6139 C.3     1  UNL1        0.0342
     12 C           1.9910   -6.1686   -4.5021 C.3     1  UNL1       -0.0288
     13 C           1.8474   -7.6719   -4.7870 C.3     1  UNL1       -0.0386
     14 C           2.7220   -8.4542   -3.7928 C.3     1  UNL1       -0.0472
     15 C           4.2035   -8.0803   -3.9747 C.3     1  UNL1       -0.0386
     16 C           4.6425   -8.3593   -5.4171 C.3     1  UNL1       -0.0472
     17 C           3.7815   -7.5404   -6.3912 C.3     1  UNL1       -0.0386
     18 C           2.3132   -7.9639   -6.2215 C.3     1  UNL1       -0.0472
     19 C           3.9215   -6.0351   -6.0749 C.3     1  UNL1       -0.0288
     20 C           4.3816   -6.5839   -3.6864 C.3     1  UNL1       -0.0288
     21 C           4.2145   -2.6005   -2.6430 C.ar    1  UNL1        0.1505
     22 N           4.9167   -1.6699   -3.3268 N.ar    1  UNL1       -0.1685
     23 N           5.2552   -0.7497   -2.3960 N.ar    1  UNL1       -0.2786
     24 H           6.7638    0.5862    1.2444 H       1  UNL1        0.0236
     25 H           7.1051   -0.9601    0.4545 H       1  UNL1        0.0236
     26 H           7.0850    0.5327   -0.4964 H       1  UNL1        0.0236
     27 H           4.6973   -0.7078    0.9595 H       1  UNL1        0.0359
     28 H           4.7634    1.7459   -0.8654 H       1  UNL1        0.0236
     29 H           3.3063    0.9989   -0.1941 H       1  UNL1        0.0236
     30 H           4.5021    1.7310    0.8868 H       1  UNL1        0.0236
     31 H           2.5328   -4.6794   -0.0280 H       1  UNL1        0.1048
     32 H           4.3189   -3.8019   -4.9032 H       1  UNL1        0.1481
     33 H           1.5823   -5.9571   -3.5093 H       1  UNL1        0.0288
     34 H           1.3746   -5.5957   -5.2095 H       1  UNL1        0.0288
     35 H           0.7999   -7.9699   -4.6730 H       1  UNL1        0.0302
     36 H           2.4039   -8.2385   -2.7658 H       1  UNL1        0.0271
     37 H           2.5887   -9.5320   -3.9467 H       1  UNL1        0.0271
     38 H           4.8187   -8.6628   -3.2794 H       1  UNL1        0.0302
     39 H           4.5467   -9.4308   -5.6340 H       1  UNL1        0.0271
     40 H           5.7012   -8.1027   -5.5431 H       1  UNL1        0.0271
     41 H           4.1058   -7.7351   -7.4199 H       1  UNL1        0.0302
     42 H           2.2039   -9.0325   -6.4387 H       1  UNL1        0.0271
     43 H           1.6831   -7.4255   -6.9401 H       1  UNL1        0.0271
     44 H           4.9643   -5.7242   -6.2236 H       1  UNL1        0.0288
     45 H           3.3225   -5.4516   -6.7866 H       1  UNL1        0.0288
     46 H           5.4324   -6.2942   -3.8204 H       1  UNL1        0.0288
     47 H           4.1602   -6.4284   -2.6276 H       1  UNL1        0.0288
     48 H           5.7704    0.0670   -2.7043 H       1  UNL1        0.1886
@<TRIPOS>BOND
     1     1    24    1
     2     1    25    1
     3     1    26    1
     4     2     1    1
     5     2    27    1
     6     3     2    1
     7     3    28    1
     8     3    29    1
     9     3    30    1
    10     4     2    1
    11     5     4   ar
    12     6     5   ar
    13     7     6   ar
    14     7    31    1
    15     8     7   ar
    16     9     8   ar
    17    10     9    1
    18    10    32    1
    19    11    10    1
    20    12    11    1
    21    12    33    1
    22    12    34    1
    23    13    12    1
    24    13    35    1
    25    14    13    1
    26    14    36    1
    27    14    37    1
    28    15    14    1
    29    15    38    1
    30    16    15    1
    31    16    39    1
    32    16    40    1
    33    17    16    1
    34    17    41    1
    35    18    17    1
    36    18    13    1
    37    18    42    1
    38    18    43    1
    39    19    17    1
    40    19    11    1
    41    19    44    1
    42    19    45    1
    43    20    15    1
    44    20    11    1
    45    20    46    1
    46    20    47    1
    47    21     9   ar
    48    21     5   ar
    49    22    21   ar
    50    23    22   ar
    51    23     4   ar
    52    23    48    1
@<TRIPOS>MOLECULE
mol_545_akc_jbmcl201105076
>528.sdf
 34 36 0 0 0
SMALL
GASTEIGER

@<TRIPOS>ATOM
      1 C           1.3912   -1.0406   -0.1900 C.3     1  UNL1       -0.0572
      2 C           2.5428   -0.0603    0.0405 C.3     1  UNL1       -0.0028
      3 C           3.6942   -0.7446    0.7794 C.3     1  UNL1       -0.0572
      4 C           2.9977    0.5328   -1.2538 C.ar    1  UNL1        0.0647
      5 C           3.5438   -0.0103   -2.3845 C.ar    1  UNL1        0.1168
      6 N           3.8378   -1.3102   -2.5817 N.ar    1  UNL1       -0.2319
      7 C           4.3651   -1.4811   -3.8186 C.ar    1  UNL1        0.1189
      8 N           4.6151   -0.5619   -4.7951 N.ar    1  UNL1       -0.2184
      9 C           4.3083    0.7624   -4.5954 C.ar    1  UNL1        0.1541
     10 N           4.5123    1.7245   -5.5940 N.pl3   1  UNL1       -0.2976
     11 C           5.4623    1.7052   -6.6273 C.ar    1  UNL1        0.0326
     12 C           5.2124    2.4145   -7.8101 C.ar    1  UNL1       -0.0378
     13 C           6.1128    2.3589   -8.8792 C.ar    1  UNL1       -0.0247
     14 C           7.2732    1.6047   -8.7619 C.ar    1  UNL1        0.1235
     15 F           8.1364    1.5516   -9.7850 F       1  UNL1       -0.2055
     16 C           7.5486    0.8986   -7.6018 C.ar    1  UNL1       -0.0247
     17 C           6.6378    0.9416   -6.5440 C.ar    1  UNL1       -0.0378
     18 C           3.7409    1.0516   -3.3281 C.ar    1  UNL1        0.1508
     19 N           3.3256    2.2134   -2.7798 N.ar    1  UNL1       -0.1685
     20 N           2.9079    1.8705   -1.5403 N.ar    1  UNL1       -0.2786
     21 H           1.0263   -1.4433    0.7610 H       1  UNL1        0.0236
     22 H           0.5512   -0.5455   -0.6905 H       1  UNL1        0.0236
     23 H           1.6956   -1.8872   -0.8153 H       1  UNL1        0.0236
     24 H           2.1690    0.7454    0.6868 H       1  UNL1        0.0359
     25 H           4.0949   -1.5937    0.2152 H       1  UNL1        0.0236
     26 H           4.5185   -0.0449    0.9573 H       1  UNL1        0.0236
     27 H           3.3583   -1.1214    1.7516 H       1  UNL1        0.0236
     28 H           4.6301   -2.5040   -4.0748 H       1  UNL1        0.1048
     29 H           4.1470    2.6367   -5.3453 H       1  UNL1        0.1536
     30 H           4.2938    2.9859   -7.9210 H       1  UNL1        0.0637
     31 H           5.9100    2.8884   -9.8035 H       1  UNL1        0.0647
     32 H           8.4589    0.3135   -7.5210 H       1  UNL1        0.0647
     33 H           6.8652    0.3819   -5.6412 H       1  UNL1        0.0637
     34 H           2.5614    2.6083   -0.9368 H       1  UNL1        0.1886
@<TRIPOS>BOND
     1     1    21    1
     2     1    22    1
     3     1    23    1
     4     2     1    1
     5     2    24    1
     6     3     2    1
     7     3    25    1
     8     3    26    1
     9     3    27    1
    10     4     2    1
    11     5     4   ar
    12     6     5   ar
    13     7     6   ar
    14     7    28    1
    15     8     7   ar
    16     9     8   ar
    17    10     9    1
    18    10    29    1
    19    11    10    1
    20    12    11   ar
    21    12    30    1
    22    13    12   ar
    23    13    31    1
    24    14    13   ar
    25    15    14    1
    26    16    14   ar
    27    16    32    1
    28    17    16   ar
    29    17    11   ar
    30    17    33    1
    31    18     9   ar
    32    18     5   ar
    33    19    18   ar
    34    20    19   ar
    35    20     4   ar
    36    20    34    1
@<TRIPOS>MOLECULE
mol_546_akc_j1747_0285201101092x
>529.sdf
 45 49 0 0 0
SMALL
GASTEIGER

@<TRIPOS>ATOM
      1 CL          2.5850   -4.2912    0.5726 Cl      1  UNL1       -0.0791
      2 C           3.9339   -4.0090    1.6098 C.ar    1  UNL1        0.0945
      3 C           4.0601   -4.7221    2.7889 C.ar    1  UNL1        0.1849
      4 O           3.1855   -5.6381    3.2895 O.3     1  UNL1       -0.4511
      5 C           3.7957   -5.9495    4.5601 C.3     1  UNL1        0.2333
      6 O           5.0735   -5.3048    4.7396 O.3     1  UNL1       -0.4526
      7 C           5.1379   -4.5375    3.6203 C.ar    1  UNL1        0.1677
      8 C           6.1495   -3.6529    3.3181 C.ar    1  UNL1       -0.0156
      9 C           6.0294   -2.8946    2.1498 C.ar    1  UNL1       -0.0484
     10 C           4.9085   -3.0399    1.2958 C.ar    1  UNL1        0.0191
     11 C           4.7860   -2.1435    0.0900 C.3     1  UNL1       -0.0044
     12 N           3.5353   -1.2880    0.0683 N.4     1  UNL1        0.2392
     13 C           3.3779   -0.3596    1.2491 C.3     1  UNL1       -0.0270
     14 C           2.0641    0.4362    1.1635 C.3     1  UNL1        0.0180
     15 C           1.9565    1.1873   -0.1604 C.3     1  UNL1       -0.0307
     16 C           2.0120    0.1637   -1.2912 C.3     1  UNL1        0.0401
     17 C           3.3734   -0.5583   -1.2529 C.3     1  UNL1       -0.0232
     18 C           0.9069   -0.8698   -1.1585 C.ar    1  UNL1        0.0302
     19 C           0.4106   -1.4937   -2.2412 C.ar    1  UNL1       -0.0416
     20 C          -0.5535   -2.5533   -2.1042 C.ar    1  UNL1       -0.0550
     21 C          -0.9987   -2.9184   -0.8964 C.ar    1  UNL1        0.0030
     22 C          -0.5119   -2.2228    0.3175 C.ar    1  UNL1        0.2515
     23 O          -0.9514   -2.5309    1.4162 O.2     1  UNL1       -0.2677
     24 N           0.4691   -1.2347    0.1205 N.ar    1  UNL1       -0.3115
     25 C           0.8287   -0.4583    1.3099 C.3     1  UNL1        0.0340
     26 H           3.1226   -5.6223    5.3613 H       1  UNL1        0.1166
     27 H           3.9324   -7.0341    4.6328 H       1  UNL1        0.1166
     28 H           7.0047   -3.5437    3.9789 H       1  UNL1        0.0655
     29 H           6.8229   -2.1848    1.9161 H       1  UNL1        0.0624
     30 H           5.6331   -1.4514    0.0179 H       1  UNL1        0.0868
     31 H           4.7778   -2.7572   -0.8189 H       1  UNL1        0.0868
     32 H           2.7535   -1.9653    0.1206 H       1  UNL1        0.2037
     33 H           4.2426    0.3139    1.2428 H       1  UNL1        0.0818
     34 H           3.4011   -0.9628    2.1618 H       1  UNL1        0.0818
     35 H           2.0614    1.1577    1.9899 H       1  UNL1        0.0370
     36 H           1.0198    1.7585   -0.2017 H       1  UNL1        0.0278
     37 H           2.7751    1.9109   -0.2553 H       1  UNL1        0.0278
     38 H           1.9199    0.6939   -2.2478 H       1  UNL1        0.0416
     39 H           4.2073    0.1478   -1.3389 H       1  UNL1        0.0821
     40 H           3.4512   -1.3061   -2.0499 H       1  UNL1        0.0821
     41 H           0.7337   -1.2493   -3.2510 H       1  UNL1        0.0635
     42 H          -0.9040   -3.0573   -3.0002 H       1  UNL1        0.0620
     43 H          -1.7219   -3.7109   -0.7514 H       1  UNL1        0.0672
     44 H          -0.0444    0.1673    1.5425 H       1  UNL1        0.0497
     45 H           0.9561   -1.1397    2.1606 H       1  UNL1        0.0497
@<TRIPOS>UNITY_ATOM_ATTR
12 1
charge 1
@<TRIPOS>BOND
     1     2     1    1
     2     3     2   ar
     3     4     3    1
     4     5     4    1
     5     5    26    1
     6     5    27    1
     7     6     5    1
     8     7     6    1
     9     7     3   ar
    10     8     7   ar
    11     8    28    1
    12     9     8   ar
    13     9    29    1
    14    10     9   ar
    15    10     2   ar
    16    11    10    1
    17    11    30    1
    18    11    31    1
    19    13    12    1
    20    13    33    1
    21    13    34    1
    22    14    13    1
    23    14    35    1
    24    15    14    1
    25    15    36    1
    26    15    37    1
    27    16    15    1
    28    16    38    1
    29    17    16    1
    30    17    12    1
    31    17    39    1
    32    17    40    1
    33    18    16    1
    34    19    18   ar
    35    19    41    1
    36    20    19   ar
    37    20    42    1
    38    21    20   ar
    39    21    43    1
    40    22    21   ar
    41    23    22    2
    42    24    22   ar
    43    24    18   ar
    44    25    24    1
    45    25    14    1
    46    25    44    1
    47    25    45    1
    48    12    32    1
    49    12    11    1
@<TRIPOS>MOLECULE
mol_548_akc_s11030_019_09953_4
>531.sdf
 32 34 0 0 0
SMALL
GASTEIGER

@<TRIPOS>ATOM
      1 C           1.0860   -0.1168    0.2055 C.3     1  UNL1        0.0151
      2 N           2.5483   -0.0911    0.1080 N.ar    1  UNL1       -0.3143
      3 C           3.3055   -1.2627   -0.0243 C.ar    1  UNL1        0.2054
      4 O           2.5867   -2.4644   -0.0004 O.3     1  UNL1       -0.4396
      5 C           3.1667   -3.6267    0.4556 C.ar    1  UNL1        0.1303
      6 C           3.9655   -3.6945    1.5998 C.ar    1  UNL1       -0.0193
      7 C           4.5301   -4.9138    1.9799 C.ar    1  UNL1       -0.0583
      8 C           4.2638   -6.0681    1.2428 C.ar    1  UNL1       -0.0615
      9 C           3.4227   -6.0086    0.1319 C.ar    1  UNL1       -0.0583
     10 C           2.8699   -4.7885   -0.2584 C.ar    1  UNL1       -0.0193
     11 C           4.6327   -1.2454   -0.2317 C.ar    1  UNL1        0.0460
     12 C           5.3616    0.0327   -0.2352 C.ar    1  UNL1        0.1930
     13 O           6.5805    0.0479   -0.3646 O.2     1  UNL1       -0.2870
     14 C           4.5737    1.2700   -0.0791 C.ar    1  UNL1        0.0454
     15 C           3.1761    1.1809    0.0683 C.ar    1  UNL1        0.0552
     16 C           2.4764    2.3967    0.1750 C.ar    1  UNL1       -0.0374
     17 C           3.1400    3.6310    0.1499 C.ar    1  UNL1       -0.0598
     18 C           4.5235    3.6844    0.0213 C.ar    1  UNL1       -0.0610
     19 C           5.2446    2.5020   -0.0947 C.ar    1  UNL1       -0.0489
     20 H           0.7465    0.3787    1.1215 H       1  UNL1        0.0457
     21 H           0.6317    0.3728   -0.6647 H       1  UNL1        0.0457
     22 H           0.6774   -1.1323    0.2374 H       1  UNL1        0.0457
     23 H           4.1656   -2.8076    2.1941 H       1  UNL1        0.0654
     24 H           5.1788   -4.9636    2.8509 H       1  UNL1        0.0619
     25 H           4.7067   -7.0160    1.5385 H       1  UNL1        0.0618
     26 H           3.2013   -6.9108   -0.4323 H       1  UNL1        0.0619
     27 H           2.2165   -4.7420   -1.1255 H       1  UNL1        0.0654
     28 H           5.2334   -2.1312   -0.3875 H       1  UNL1        0.0709
     29 H           1.3960    2.4212    0.2802 H       1  UNL1        0.0638
     30 H           2.5689    4.5529    0.2334 H       1  UNL1        0.0618
     31 H           5.0383    4.6414    0.0067 H       1  UNL1        0.0618
     32 H           6.3270    2.5351   -0.2010 H       1  UNL1        0.0625
@<TRIPOS>BOND
     1     1    20    1
     2     1    21    1
     3     1    22    1
     4     2     1    1
     5     3     2   ar
     6     4     3    1
     7     5     4    1
     8     6     5   ar
     9     6    23    1
    10     7     6   ar
    11     7    24    1
    12     8     7   ar
    13     8    25    1
    14     9     8   ar
    15     9    26    1
    16    10     9   ar
    17    10     5   ar
    18    10    27    1
    19    11     3   ar
    20    11    28    1
    21    12    11   ar
    22    13    12    2
    23    14    12   ar
    24    15    14   ar
    25    15     2   ar
    26    16    15   ar
    27    16    29    1
    28    17    16   ar
    29    17    30    1
    30    18    17   ar
    31    18    31    1
    32    19    18   ar
    33    19    14   ar
    34    19    32    1
@<TRIPOS>MOLECULE
mol_549_akc_jejmech201103053
>532.sdf
 56 59 0 0 0
SMALL
GASTEIGER

@<TRIPOS>ATOM
      1 C           3.7639   -1.1542    0.2630 C.3     1  UNL1       -0.0619
      2 C           3.6957   -0.0469   -0.7805 C.3     1  UNL1       -0.0197
      3 C           4.7099    1.0650   -0.5099 C.3     1  UNL1        0.0777
      4 N           4.3901    1.7242    0.7605 N.pl3   1  UNL1       -0.2395
      5 C           5.2397    1.8937    1.7917 C.2     1  UNL1        0.2330
      6 N           4.6249    1.9880    2.8662 N.2     1  UNL1       -0.4099
      7 C           6.7235    1.9222    1.7674 C.ar    1  UNL1        0.0575
      8 C           7.3934    2.4587    0.6715 C.ar    1  UNL1       -0.0454
      9 C           8.7931    2.5123    0.6629 C.ar    1  UNL1       -0.0399
     10 C           9.5658    2.0530    1.7402 C.ar    1  UNL1        0.0298
     11 C           8.8625    1.5472    2.8422 C.ar    1  UNL1       -0.0399
     12 C           7.4647    1.4707    2.8621 C.ar    1  UNL1       -0.0454
     13 N          10.9409    2.0713    1.7061 N.pl3   1  UNL1       -0.3269
     14 C          11.7145    3.1083    0.9888 C.3     1  UNL1        0.0280
     15 C          12.7728    2.4565    0.0745 C.3     1  UNL1        0.0298
     16 N          13.5974    1.5334    0.8576 N.pl3   1  UNL1       -0.3052
     17 C          12.8495    0.4716    1.5384 C.3     1  UNL1        0.0298
     18 C          11.7740    1.1043    2.4606 C.3     1  UNL1        0.0280
     19 C          14.9521    1.4707    0.7614 C.ar    1  UNL1        0.1846
     20 N          15.6835    0.4020    1.0199 N.ar    1  UNL1       -0.1254
     21 N          17.0438    0.6339    0.9352 N.ar    1  UNL1       -0.1364
     22 C          17.3064    1.8907    0.6544 C.ar    1  UNL1        0.1689
     23 S          15.9239    2.8544    0.3899 S.2     1  UNL1       -0.0276
     24 C          18.6322    2.4337    0.6109 C.ar    1  UNL1        0.1688
     25 C          19.8398    1.7781    0.8201 C.ar    1  UNL1       -0.0066
     26 C          20.8762    2.7430    0.7251 C.ar    1  UNL1        0.0595
     27 C          20.2376    3.9282    0.4533 C.ar    1  UNL1        0.4381
     28 O          18.8957    3.7650    0.3749 O.2     1  UNL1       -0.3980
     29 N          20.7307    5.2560    0.2629 N.pl3   1  UNL1        0.1186
     30 O          21.9546    5.4032    0.3660 O.co2   1  UNL1       -0.5735
     31 O          19.9076    6.1445    0.0150 O.2     1  UNL1        0.0446
     32 H           3.0521   -1.9490    0.0208 H       1  UNL1        0.0231
     33 H           4.7662   -1.5923    0.3018 H       1  UNL1        0.0231
     34 H           3.5158   -0.7781    1.2605 H       1  UNL1        0.0231
     35 H           3.8939   -0.4775   -1.7691 H       1  UNL1        0.0299
     36 H           2.6794    0.3642   -0.8057 H       1  UNL1        0.0299
     37 H           5.7174    0.6388   -0.5141 H       1  UNL1        0.0724
     38 H           4.6570    1.8102   -1.3115 H       1  UNL1        0.0724
     39 H           3.4881    2.1917    0.6952 H       1  UNL1        0.2911
     40 H           5.1418    2.5110    3.5523 H       1  UNL1        0.2551
     41 H           6.8543    2.8452   -0.1885 H       1  UNL1        0.0627
     42 H           9.2732    2.8948   -0.2347 H       1  UNL1        0.0636
     43 H           9.4024    1.2185    3.7278 H       1  UNL1        0.0636
     44 H           6.9985    1.0422    3.7430 H       1  UNL1        0.0627
     45 H          11.0907    3.7804    0.3926 H       1  UNL1        0.0479
     46 H          12.2186    3.7382    1.7332 H       1  UNL1        0.0479
     47 H          12.2707    1.8922   -0.7219 H       1  UNL1        0.0480
     48 H          13.3486    3.2466   -0.4167 H       1  UNL1        0.0480
     49 H          12.3590   -0.1629    0.7897 H       1  UNL1        0.0480
     50 H          13.4931   -0.1737    2.1473 H       1  UNL1        0.0480
     51 H          12.2596    1.6317    3.2913 H       1  UNL1        0.0479
     52 H          11.1833    0.2861    2.8855 H       1  UNL1        0.0479
     53 H          19.9464    0.7221    1.0345 H       1  UNL1        0.0658
     54 H          21.9402    2.5950    0.8464 H       1  UNL1        0.0722
     55 H           3.6956    2.3205    2.7189 H       1  UNL1        0.2551
     56 H           4.5255    1.0380    3.2050 H       1  UNL1        0.2551
@<TRIPOS>UNITY_ATOM_ATTR
29 1
charge 1
30 1
charge -1
@<TRIPOS>BOND
     1     1    32    1
     2     1    33    1
     3     1    34    1
     4     2     1    1
     5     2    35    1
     6     2    36    1
     7     3     2    1
     8     3    37    1
     9     3    38    1
    10     4     3    1
    11     4    39    1
    12     5     4    1
    13     6     5    2
    14     6    40    1
    15     6    55    1
    16     7     5    1
    17     8     7   ar
    18     8    41    1
    19     9     8   ar
    20     9    42    1
    21    10     9   ar
    22    11    10   ar
    23    11    43    1
    24    12    11   ar
    25    12     7   ar
    26    12    44    1
    27    13    10    1
    28    14    13    1
    29    14    45    1
    30    14    46    1
    31    15    14    1
    32    15    47    1
    33    15    48    1
    34    16    15    1
    35    17    16    1
    36    17    49    1
    37    17    50    1
    38    18    17    1
    39    18    13    1
    40    18    51    1
    41    18    52    1
    42    19    16    1
    43    20    19   ar
    44    21    20   ar
    45    22    21   ar
    46    23    22   ar
    47    23    19   ar
    48    24    22    1
    49    25    24   ar
    50    25    53    1
    51    26    25   ar
    52    26    54    1
    53    27    26   ar
    54    28    27   ar
    55    28    24   ar
    56    29    27    1
    57    30    29    1
    58    31    29    2
    59     6    56    1
@<TRIPOS>MOLECULE
mol_54_akc_jbmc201806033
>54.sdf
 22 23 0 0 0
SMALL
GASTEIGER

@<TRIPOS>ATOM
      1 C           2.6365   -1.7078    0.7083 C.3     1  UNL1        0.0614
      2 S           2.9510   -0.0697    0.1057 S.O2    1  UNL1        0.0140
      3 O           1.6774    0.6248    0.0758 O.2     1  UNL1       -0.1681
      4 O           4.0801    0.4482    0.8569 O.2     1  UNL1       -0.1681
      5 C           3.4743   -0.2805   -1.5569 C.ar    1  UNL1        0.2137
      6 N           3.4898   -1.5722   -1.9962 N.ar    1  UNL1       -0.2244
      7 C           3.8684   -1.7460   -3.2746 C.ar    1  UNL1        0.0915
      8 C           4.2349   -0.6447   -4.0952 C.ar    1  UNL1        0.0920
      9 C           4.6139   -0.8764   -5.4098 C.ar    1  UNL1       -0.0202
     10 C           4.6276   -2.1687   -5.9300 C.ar    1  UNL1        0.0200
     11 BR          5.1300   -2.4541   -7.7286 Br      1  UNL1       -0.0502
     12 C           4.2678   -3.2493   -5.1345 C.ar    1  UNL1       -0.0456
     13 C           3.8939   -3.0272   -3.8088 C.ar    1  UNL1       -0.0331
     14 N           4.2142    0.6187   -3.6250 N.ar    1  UNL1       -0.2302
     15 C           3.8220    0.7932   -2.3395 C.ar    1  UNL1        0.1732
     16 CL          3.8055    2.4357   -1.8561 Cl      1  UNL1       -0.0583
     17 H           2.2882   -1.6255    1.7405 H       1  UNL1        0.0468
     18 H           1.8604   -2.1755    0.0992 H       1  UNL1        0.0468
     19 H           3.5616   -2.2867    0.6802 H       1  UNL1        0.0468
     20 H           4.8951   -0.0297   -6.0317 H       1  UNL1        0.0650
     21 H           4.2712   -4.2618   -5.5310 H       1  UNL1        0.0629
     22 H           3.6113   -3.8713   -3.1837 H       1  UNL1        0.0640
@<TRIPOS>BOND
     1     1    17    1
     2     1    18    1
     3     1    19    1
     4     2     1    1
     5     3     2    2
     6     4     2    2
     7     5     2    1
     8     6     5   ar
     9     7     6   ar
    10     8     7   ar
    11     9     8   ar
    12     9    20    1
    13    10     9   ar
    14    11    10    1
    15    12    10   ar
    16    12    21    1
    17    13    12   ar
    18    13     7   ar
    19    13    22    1
    20    14     8   ar
    21    15    14   ar
    22    15     5   ar
    23    16    15    1
@<TRIPOS>MOLECULE
mol_551_akc_molecules16053469
>534.sdf
 33 34 0 0 0
SMALL
GASTEIGER

@<TRIPOS>ATOM
      1 C           5.1077   -2.7442    0.3272 C.3     1  UNL1        0.0332
      2 C           4.5949   -1.3435    0.1817 C.2     1  UNL1        0.3040
      3 O           3.9340   -0.7684    1.0380 O.2     1  UNL1       -0.2512
      4 O           4.9605   -0.8103   -1.0136 O.3     1  UNL1       -0.4639
      5 C           4.5813    0.5656   -1.1858 C.3     1  UNL1        0.1032
      6 C           5.1275    1.0860   -2.5126 C.3     1  UNL1        0.0438
      7 C           6.6475    1.0860   -2.5126 C.1     1  UNL1       -0.0931
      8 C           7.9514    1.0860   -2.5126 C.1     1  UNL1       -0.0590
      9 C           9.3645    1.0672   -2.5907 C.ar    1  UNL1        0.0625
     10 C          10.2099    2.0284   -2.0909 C.ar    1  UNL1       -0.0386
     11 C          11.5785    1.6849   -2.3049 C.ar    1  UNL1       -0.0452
     12 C          11.7180    0.4751   -2.9582 C.ar    1  UNL1        0.0271
     13 S          10.1949   -0.1956   -3.3621 S.2     1  UNL1       -0.0794
     14 C          12.9191   -0.2567   -3.2541 C.ar    1  UNL1        0.0262
     15 C          13.1637   -1.0709   -4.3447 C.ar    1  UNL1       -0.0462
     16 C          14.4012   -1.7689   -4.2317 C.ar    1  UNL1       -0.0512
     17 C          15.0679   -1.4519   -3.0711 C.ar    1  UNL1       -0.0127
     18 C          16.3513   -2.0127   -2.5670 C.3     1  UNL1       -0.0334
     19 S          14.2380   -0.2666   -2.1647 S.2     1  UNL1       -0.0930
     20 H           5.7311   -2.8062    1.2226 H       1  UNL1        0.0342
     21 H           4.2634   -3.4336    0.4003 H       1  UNL1        0.0342
     22 H           5.7180   -3.0287   -0.5347 H       1  UNL1        0.0342
     23 H           3.4870    0.6286   -1.1991 H       1  UNL1        0.0707
     24 H           4.9711    1.1636   -0.3533 H       1  UNL1        0.0707
     25 H           4.7876    0.4494   -3.3372 H       1  UNL1        0.0431
     26 H           4.7709    2.1056   -2.6917 H       1  UNL1        0.0431
     27 H           9.8730    2.9221   -1.5788 H       1  UNL1        0.0635
     28 H          12.4131    2.2896   -1.9705 H       1  UNL1        0.0629
     29 H          12.4681   -1.2000   -5.1660 H       1  UNL1        0.0629
     30 H          14.7583   -2.4901   -4.9567 H       1  UNL1        0.0626
     31 H          16.2841   -3.1046   -2.5140 H       1  UNL1        0.0283
     32 H          17.1694   -1.7459   -3.2410 H       1  UNL1        0.0283
     33 H          16.5989   -1.6466   -1.5654 H       1  UNL1        0.0283
@<TRIPOS>BOND
     1     1    20    1
     2     1    21    1
     3     1    22    1
     4     2     1    1
     5     3     2    2
     6     4     2    1
     7     5     4    1
     8     5    23    1
     9     5    24    1
    10     6     5    1
    11     6    25    1
    12     6    26    1
    13     7     6    1
    14     8     7    3
    15     9     8    1
    16    10     9   ar
    17    10    27    1
    18    11    10   ar
    19    11    28    1
    20    12    11   ar
    21    13    12   ar
    22    13     9   ar
    23    14    12    1
    24    15    14   ar
    25    15    29    1
    26    16    15   ar
    27    16    30    1
    28    17    16   ar
    29    18    17    1
    30    18    31    1
    31    18    32    1
    32    18    33    1
    33    19    17   ar
    34    19    14   ar
@<TRIPOS>MOLECULE
mol_552_akc_jbmc201102051
>535.sdf
 41 43 0 0 0
SMALL
GASTEIGER

@<TRIPOS>ATOM
      1 BR         -1.4197   -0.3619   -1.4150 Br      1  UNL1       -0.0503
      2 C           0.3999   -0.2030   -0.9275 C.ar    1  UNL1        0.0179
      3 C           1.1276    0.9135   -1.3339 C.ar    1  UNL1       -0.0472
      4 C           2.4776    1.0208   -0.9933 C.ar    1  UNL1       -0.0532
      5 C           3.1037    0.0090   -0.2518 C.ar    1  UNL1       -0.0178
      6 C           2.3599   -1.1038    0.1600 C.ar    1  UNL1       -0.0532
      7 C           1.0070   -1.2088   -0.1769 C.ar    1  UNL1       -0.0472
      8 C           4.5595    0.0707   -0.0327 C.2     1  UNL1        0.0109
      9 C           5.2024    0.6670    0.9949 C.2     1  UNL1        0.1791
     10 O           6.6035    0.6936    1.0408 O.2     1  UNL1       -0.4541
     11 C           7.3526    0.3865   -0.0976 C.2     1  UNL1        0.1331
     12 C           8.8207    0.7281    0.0193 C.3     1  UNL1        0.0937
     13 C           9.0385    2.2175    0.2302 C.1     1  UNL1        0.0703
     14 N           9.2192    3.4532    0.4051 N.1     1  UNL1       -0.1961
     15 C           6.7864   -0.2235   -1.1591 C.2     1  UNL1        0.0726
     16 C           5.3296   -0.5860   -1.1528 C.3     1  UNL1        0.0148
     17 C           7.5340   -0.5584   -2.3245 C.1     1  UNL1        0.0985
     18 N           8.1568   -0.8198   -3.2634 N.1     1  UNL1       -0.1911
     19 C           4.4711    1.2817    2.1705 C.2     1  UNL1        0.2282
     20 O           3.2927    1.0413    2.4165 O.2     1  UNL1       -0.2834
     21 C           5.2244    2.1400    3.1348 C.ar    1  UNL1        0.0255
     22 C           6.2920    2.9620    2.7499 C.ar    1  UNL1       -0.0487
     23 C           7.0248    3.6729    3.7081 C.ar    1  UNL1       -0.0308
     24 C           6.6553    3.6011    5.0564 C.ar    1  UNL1        0.1262
     25 C           5.5379    2.8527    5.4452 C.ar    1  UNL1       -0.0308
     26 C           4.8276    2.1256    4.4824 C.ar    1  UNL1       -0.0487
     27 N           7.4551    4.3014    6.0711 N.pl3   1  UNL1        0.0564
     28 O           8.4883    4.8729    5.6963 O.2     1  UNL1       -0.1261
     29 O           7.0584    4.2625    7.2443 O.2     1  UNL1       -0.1261
     30 H           0.6590    1.6972   -1.9231 H       1  UNL1        0.0629
     31 H           3.0404    1.8875   -1.3320 H       1  UNL1        0.0624
     32 H           2.8254   -1.8989    0.7373 H       1  UNL1        0.0624
     33 H           0.4398   -2.0791    0.1426 H       1  UNL1        0.0629
     34 H           9.2409    0.1919    0.8788 H       1  UNL1        0.0498
     35 H           9.4018    0.4217   -0.8557 H       1  UNL1        0.0498
     36 H           5.2335   -1.6763   -1.0660 H       1  UNL1        0.0371
     37 H           4.8951   -0.2957   -2.1187 H       1  UNL1        0.0371
     38 H           6.5740    3.0695    1.7066 H       1  UNL1        0.0625
     39 H           7.8760    4.2708    3.3830 H       1  UNL1        0.0640
     40 H           5.2159    2.8131    6.4844 H       1  UNL1        0.0640
     41 H           3.9649    1.5358    4.7925 H       1  UNL1        0.0625
@<TRIPOS>BOND
     1     2     1    1
     2     3     2   ar
     3     3    30    1
     4     4     3   ar
     5     4    31    1
     6     5     4   ar
     7     6     5   ar
     8     6    32    1
     9     7     6   ar
    10     7     2   ar
    11     7    33    1
    12     8     5    1
    13     9     8    2
    14    10     9    1
    15    11    10    1
    16    12    11    1
    17    12    34    1
    18    12    35    1
    19    13    12    1
    20    14    13    3
    21    15    11    2
    22    16    15    1
    23    16     8    1
    24    16    36    1
    25    16    37    1
    26    17    15    1
    27    18    17    3
    28    19     9    1
    29    20    19    2
    30    21    19    1
    31    22    21   ar
    32    22    38    1
    33    23    22   ar
    34    23    39    1
    35    24    23   ar
    36    25    24   ar
    37    25    40    1
    38    26    25   ar
    39    26    21   ar
    40    26    41    1
    41    27    24    1
    42    28    27    2
    43    29    27    2
@<TRIPOS>MOLECULE
mol_553_akc_journalpntd0000962
>536.sdf
 66 68 0 0 0
SMALL
GASTEIGER

@<TRIPOS>ATOM
      1 C           4.8867    0.5363    1.8708 C.3     1  UNL1       -0.0245
      2 C           4.3923    0.9128    0.4864 C.3     1  UNL1       -0.0347
      3 N           4.7159   -0.1423   -0.5546 N.4     1  UNL1        0.2372
      4 C           4.2616   -1.5548   -0.2041 C.3     1  UNL1       -0.0347
      5 C           2.7486   -1.6975   -0.1792 C.3     1  UNL1       -0.0245
      6 C           4.2821    0.2585   -1.9690 C.3     1  UNL1        0.0031
      7 C           4.9700    1.5361   -2.4830 C.3     1  UNL1        0.1291
      8 O           6.3852    1.3235   -2.4911 O.3     1  UNL1       -0.4867
      9 C           7.0924    2.1044   -3.3747 C.ar    1  UNL1        0.1215
     10 C           8.2797    1.5182   -3.8639 C.ar    1  UNL1       -0.0193
     11 C           9.1132    2.1840   -4.7786 C.ar    1  UNL1       -0.0499
     12 C           8.7572    3.4566   -5.1869 C.ar    1  UNL1       -0.0062
     13 C           9.3945    4.3926   -6.0952 C.ar    1  UNL1       -0.0062
     14 C          10.5488    4.3107   -6.8529 C.ar    1  UNL1       -0.0499
     15 C          10.9064    5.4127   -7.6578 C.ar    1  UNL1       -0.0193
     16 C          10.1260    6.5872   -7.6952 C.ar    1  UNL1        0.1215
     17 O          10.5604    7.5895   -8.5341 O.3     1  UNL1       -0.4867
     18 C          10.2849    8.9126   -8.0555 C.3     1  UNL1        0.1291
     19 C          10.8847    9.9705   -8.9947 C.3     1  UNL1        0.0031
     20 N          10.3349    9.9304  -10.4289 N.4     1  UNL1        0.2372
     21 C           8.8226    9.9284  -10.5478 C.3     1  UNL1       -0.0347
     22 C           8.1934   11.2359  -10.1029 C.3     1  UNL1       -0.0245
     23 C          11.0422   10.9863  -11.2701 C.3     1  UNL1       -0.0347
     24 C          10.6341   10.9443  -12.7306 C.3     1  UNL1       -0.0245
     25 C           8.9493    6.6590   -6.9382 C.ar    1  UNL1       -0.0085
     26 C           8.6291    5.5608   -6.1587 C.ar    1  UNL1        0.0334
     27 C           7.4550    5.3760   -5.2716 C.2     1  UNL1        0.1945
     28 O           6.5640    6.1755   -5.0789 O.2     1  UNL1       -0.2866
     29 C           7.5810    4.0294   -4.6730 C.ar    1  UNL1        0.0334
     30 C           6.7365    3.3936   -3.7726 C.ar    1  UNL1       -0.0085
     31 H           4.8514    1.4155    2.5232 H       1  UNL1        0.0281
     32 H           4.2539   -0.2292    2.3302 H       1  UNL1        0.0281
     33 H           5.9195    0.1752    1.8492 H       1  UNL1        0.0281
     34 H           3.3133    1.0900    0.4714 H       1  UNL1        0.0812
     35 H           4.9083    1.8255    0.1801 H       1  UNL1        0.0812
     36 H           5.7462   -0.1863   -0.5995 H       1  UNL1        0.2034
     37 H           4.7008   -2.2271   -0.9497 H       1  UNL1        0.0812
     38 H           4.7006   -1.8136    0.7635 H       1  UNL1        0.0812
     39 H           2.2555   -0.8906    0.3686 H       1  UNL1        0.0281
     40 H           2.3391   -1.7251   -1.1942 H       1  UNL1        0.0281
     41 H           2.4717   -2.6402    0.3049 H       1  UNL1        0.0281
     42 H           4.5625   -0.5829   -2.6134 H       1  UNL1        0.0848
     43 H           3.1953    0.3764   -1.9610 H       1  UNL1        0.0848
     44 H           4.5950    1.7288   -3.4957 H       1  UNL1        0.0751
     45 H           4.7282    2.3997   -1.8546 H       1  UNL1        0.0751
     46 H           8.5565    0.5179   -3.5371 H       1  UNL1        0.0654
     47 H          10.0127    1.7006   -5.1483 H       1  UNL1        0.0625
     48 H          11.1767    3.4238   -6.8370 H       1  UNL1        0.0625
     49 H          11.8174    5.3513   -8.2521 H       1  UNL1        0.0654
     50 H           9.2098    9.0870   -7.9660 H       1  UNL1        0.0751
     51 H          10.7407    9.0381   -7.0649 H       1  UNL1        0.0751
     52 H          10.7010   10.9765   -8.6043 H       1  UNL1        0.0848
     53 H          11.9648    9.8125   -9.0878 H       1  UNL1        0.0848
     54 H          10.6347    9.0141  -10.7957 H       1  UNL1        0.2034
     55 H           8.5734    9.7057  -11.5905 H       1  UNL1        0.0812
     56 H           8.4492    9.0867   -9.9597 H       1  UNL1        0.0812
     57 H           8.6154   11.6139   -9.1685 H       1  UNL1        0.0281
     58 H           8.3067   12.0099  -10.8684 H       1  UNL1        0.0281
     59 H           7.1192   11.0921   -9.9451 H       1  UNL1        0.0281
     60 H          10.8315   11.9648  -10.8260 H       1  UNL1        0.0812
     61 H          12.1153   10.7825  -11.1858 H       1  UNL1        0.0812
     62 H          10.7704    9.9469  -13.1583 H       1  UNL1        0.0281
     63 H           9.5929   11.2482  -12.8729 H       1  UNL1        0.0281
     64 H          11.2485   11.6468  -13.3044 H       1  UNL1        0.0281
     65 H           8.2797    7.5062   -6.9403 H       1  UNL1        0.0661
     66 H           5.8577    3.9130   -3.4093 H       1  UNL1        0.0661
@<TRIPOS>UNITY_ATOM_ATTR
3 1
charge 1
20 1
charge 1
@<TRIPOS>BOND
     1     1    31    1
     2     1    32    1
     3     1    33    1
     4     2     1    1
     5     2    34    1
     6     2    35    1
     7     3     2    1
     8     3    36    1
     9     4     3    1
    10     4    37    1
    11     4    38    1
    12     5     4    1
    13     5    39    1
    14     5    40    1
    15     5    41    1
    16     6     3    1
    17     6    42    1
    18     6    43    1
    19     7     6    1
    20     7    44    1
    21     7    45    1
    22     8     7    1
    23     9     8    1
    24    10     9   ar
    25    10    46    1
    26    11    10   ar
    27    11    47    1
    28    12    11   ar
    29    13    12    1
    30    14    13   ar
    31    14    48    1
    32    15    14   ar
    33    15    49    1
    34    16    15   ar
    35    17    16    1
    36    18    17    1
    37    18    50    1
    38    18    51    1
    39    19    18    1
    40    19    52    1
    41    19    53    1
    42    20    19    1
    43    20    54    1
    44    21    20    1
    45    21    55    1
    46    21    56    1
    47    22    21    1
    48    22    57    1
    49    22    58    1
    50    22    59    1
    51    23    20    1
    52    23    60    1
    53    23    61    1
    54    24    23    1
    55    24    62    1
    56    24    63    1
    57    24    64    1
    58    25    16   ar
    59    25    65    1
    60    26    25   ar
    61    26    13   ar
    62    27    26    1
    63    28    27    2
    64    29    27    1
    65    29    12   ar
    66    30    29   ar
    67    30     9   ar
    68    30    66    1
@<TRIPOS>MOLECULE
mol_554_akc_journalpntd0000962
>537.sdf
 36 35 0 0 0
SMALL
GASTEIGER

@<TRIPOS>ATOM
      1 C           4.0620    1.2246    1.7159 C.3     1  UNL1       -0.0493
      2 C           3.1495    1.0600    0.5077 C.3     1  UNL1        0.0103
      3 N           3.7187    1.6199   -0.7373 N.am    1  UNL1       -0.3189
      4 C           3.3915    3.0193   -1.0929 C.3     1  UNL1        0.0103
      5 C           2.5811    3.8537   -0.1065 C.3     1  UNL1       -0.0493
      6 C           4.5389    0.8177   -1.5823 C.2     1  UNL1        0.1200
      7 S           4.9819   -0.7846   -1.2566 S.2     1  UNL1       -0.0271
      8 S           5.0172    1.5354   -3.1521 S.3     1  UNL1       -0.0271
      9 S           7.0795    1.3716   -3.1468 S.3     1  UNL1       -0.0271
     10 C           7.6728    2.3462   -4.5097 C.2     1  UNL1        0.1200
     11 S           6.9273    3.7353   -5.0938 S.2     1  UNL1       -0.0271
     12 N           8.9290    1.9087   -4.9570 N.am    1  UNL1       -0.3189
     13 C           9.1074    0.5330   -5.4448 C.3     1  UNL1        0.0103
     14 C          10.2130   -0.2376   -4.7433 C.3     1  UNL1       -0.0493
     15 C          10.0525    2.8505   -5.0781 C.3     1  UNL1        0.0103
     16 C          10.5673    3.0448   -6.4939 C.3     1  UNL1       -0.0493
     17 H           3.6052    0.7705    2.5961 H       1  UNL1        0.0245
     18 H           5.0318    0.7455    1.5563 H       1  UNL1        0.0245
     19 H           4.2502    2.2796    1.9385 H       1  UNL1        0.0245
     20 H           2.9324   -0.0022    0.3690 H       1  UNL1        0.0461
     21 H           2.1730    1.5104    0.7057 H       1  UNL1        0.0461
     22 H           4.3367    3.5422   -1.2820 H       1  UNL1        0.0461
     23 H           2.8322    2.9866   -2.0359 H       1  UNL1        0.0461
     24 H           1.5787    3.4420    0.0455 H       1  UNL1        0.0245
     25 H           3.0791    3.9350    0.8634 H       1  UNL1        0.0245
     26 H           2.4529    4.8689   -0.4981 H       1  UNL1        0.0245
     27 H           8.1640   -0.0183   -5.3566 H       1  UNL1        0.0461
     28 H           9.3180    0.5885   -6.5206 H       1  UNL1        0.0461
     29 H          11.1887    0.2386   -4.8825 H       1  UNL1        0.0245
     30 H          10.0209   -0.3119   -3.6693 H       1  UNL1        0.0245
     31 H          10.2807   -1.2509   -5.1522 H       1  UNL1        0.0245
     32 H           9.7697    3.8211   -4.6563 H       1  UNL1        0.0461
     33 H          10.8611    2.4763   -4.4399 H       1  UNL1        0.0461
     34 H          11.0069    2.1240   -6.8889 H       1  UNL1        0.0245
     35 H           9.7660    3.3568   -7.1698 H       1  UNL1        0.0245
     36 H          11.3479    3.8122   -6.5054 H       1  UNL1        0.0245
@<TRIPOS>BOND
     1     1    17    1
     2     1    18    1
     3     1    19    1
     4     2     1    1
     5     2    20    1
     6     2    21    1
     7     3     2    1
     8     4     3    1
     9     4    22    1
    10     4    23    1
    11     5     4    1
    12     5    24    1
    13     5    25    1
    14     5    26    1
    15     6     3    1
    16     7     6    2
    17     8     6    1
    18     9     8    1
    19    10     9    1
    20    11    10    2
    21    12    10    1
    22    13    12    1
    23    13    27    1
    24    13    28    1
    25    14    13    1
    26    14    29    1
    27    14    30    1
    28    14    31    1
    29    15    12    1
    30    15    32    1
    31    15    33    1
    32    16    15    1
    33    16    34    1
    34    16    35    1
    35    16    36    1
@<TRIPOS>MOLECULE
mol_555_akc_aac00436_10
>538.sdf
 51 54 0 0 0
SMALL
GASTEIGER

@<TRIPOS>ATOM
      1 C           1.3364   -0.0974    0.4614 C.3     1  UNL1       -0.0492
      2 C           2.8497    0.0948    0.4458 C.3     1  UNL1        0.0869
      3 C           3.3916    0.6776   -0.8583 C.3     1  UNL1        0.1090
      4 N           3.2157    2.1337   -0.9269 N.pl3   1  UNL1       -0.2186
      5 C           3.5671    2.7613   -2.2089 C.3     1  UNL1        0.0668
      6 C           3.1745    4.2381   -2.2954 C.3     1  UNL1        0.0208
      7 C           1.6825    4.4789   -2.5959 C.3     1  UNL1       -0.0194
      8 C           1.2910    3.9943   -3.9740 C.ar    1  UNL1       -0.0468
      9 C           0.6623    2.7509   -4.1264 C.ar    1  UNL1       -0.0572
     10 C           0.3799    2.2523   -5.3982 C.ar    1  UNL1       -0.0431
     11 C           0.7112    3.0019   -6.5242 C.ar    1  UNL1        0.0410
     12 CL          0.3883    2.3737   -8.0927 Cl      1  UNL1       -0.0835
     13 C           1.3120    4.2527   -6.3880 C.ar    1  UNL1       -0.0431
     14 C           1.6018    4.7477   -5.1155 C.ar    1  UNL1       -0.0572
     15 C           3.5940    4.9036   -0.9930 C.3     1  UNL1        0.0636
     16 N           3.0265    4.1835    0.1174 N.pl3   1  UNL1       -0.2394
     17 C           3.1253    2.8355    0.2430 C.2     1  UNL1        0.3653
     18 N           3.1213    2.3458    1.4376 N.am    1  UNL1       -0.0080
     19 C           3.2562    0.9882    1.5911 C.2     1  UNL1        0.3156
     20 O           3.6191    0.4902    2.6540 O.2     1  UNL1       -0.2537
     21 C           4.8481    0.2538   -1.0644 C.ar    1  UNL1       -0.0119
     22 C           5.1282   -0.9165   -1.7884 C.ar    1  UNL1       -0.0549
     23 C           6.4436   -1.3612   -1.9461 C.ar    1  UNL1       -0.0498
     24 C           7.5094   -0.6458   -1.3845 C.ar    1  UNL1        0.0548
     25 C           7.2341    0.5272   -0.6693 C.ar    1  UNL1       -0.0498
     26 C           5.9198    0.9651   -0.5021 C.ar    1  UNL1       -0.0549
     27 C           8.9351   -1.1159   -1.5309 C.3     1  UNL1        0.4174
     28 F           9.0503   -2.3230   -2.1519 F       1  UNL1       -0.1659
     29 F           9.6943   -0.2494   -2.2577 F       1  UNL1       -0.1659
     30 F           9.5668   -1.2517   -0.3321 F       1  UNL1       -0.1659
     31 H           0.9933   -0.6182   -0.4381 H       1  UNL1        0.0239
     32 H           1.0488   -0.7083    1.3251 H       1  UNL1        0.0239
     33 H           0.7962    0.8510    0.5437 H       1  UNL1        0.0239
     34 H           3.3004   -0.8935    0.6177 H       1  UNL1        0.0443
     35 H           2.8152    0.2478   -1.6902 H       1  UNL1        0.0730
     36 H           3.1407    2.1866   -3.0371 H       1  UNL1        0.0638
     37 H           4.6552    2.7071   -2.3389 H       1  UNL1        0.0638
     38 H           3.7558    4.6942   -3.1086 H       1  UNL1        0.0362
     39 H           1.0422    4.0093   -1.8391 H       1  UNL1        0.0318
     40 H           1.4655    5.5546   -2.5423 H       1  UNL1        0.0318
     41 H           0.4096    2.1536   -3.2515 H       1  UNL1        0.0621
     42 H          -0.0895    1.2784   -5.5033 H       1  UNL1        0.0632
     43 H           1.5638    4.8392   -7.2680 H       1  UNL1        0.0632
     44 H           2.0817    5.7201   -5.0223 H       1  UNL1        0.0621
     45 H           3.2699    5.9492   -0.9638 H       1  UNL1        0.0636
     46 H           4.6874    4.9036   -0.9015 H       1  UNL1        0.0636
     47 H           3.1000    4.6477    1.0199 H       1  UNL1        0.2442
     48 H           4.3214   -1.5034   -2.2248 H       1  UNL1        0.0621
     49 H           6.6310   -2.2799   -2.5014 H       1  UNL1        0.0623
     50 H           8.0457    1.1014   -0.2246 H       1  UNL1        0.0623
     51 H           5.7446    1.8694    0.0776 H       1  UNL1        0.0621
@<TRIPOS>BOND
     1     1    31    1
     2     1    32    1
     3     1    33    1
     4     2     1    1
     5     2    34    1
     6     3     2    1
     7     4     3    1
     8     5     4    1
     9     5    36    1
    10     5    37    1
    11     6     5    1
    12     7    39    1
    13     7    40    1
    14     8     7    1
    15     9     8   ar
    16     9    41    1
    17    10     9   ar
    18    10    42    1
    19    11    10   ar
    20    12    11    1
    21    13    11   ar
    22    13    43    1
    23    14    13   ar
    24    14     8   ar
    25    14    44    1
    26    15     6    1
    27    15    45    1
    28    15    46    1
    29    16    15    1
    30    16    47    1
    31    17    16    1
    32    17     4    1
    33    18    17    2
    34    19    18    1
    35    19     2    1
    36    20    19    2
    37    22    21   ar
    38    22    48    1
    39    23    22   ar
    40    23    49    1
    41    24    23   ar
    42    25    24   ar
    43    25    50    1
    44    26    25   ar
    45    26    21   ar
    46    26    51    1
    47    27    24    1
    48    28    27    1
    49    29    27    1
    50    30    27    1
    51     3    21    1
    52     3    35    1
    53     6     7    1
    54     6    38    1
@<TRIPOS>MOLECULE
mol_556_akc_jactatropica201010011
>539.sdf
 46 49 0 0 0
SMALL
GASTEIGER

@<TRIPOS>ATOM
      1 CL         -1.5988   -0.3182    3.2741 Cl      1  UNL1       -0.0835
      2 C          -0.3690    0.0254    2.1198 C.ar    1  UNL1        0.0413
      3 C           0.2902    1.2558    2.1544 C.ar    1  UNL1       -0.0369
      4 C           1.3082    1.5380    1.2305 C.ar    1  UNL1       -0.0065
      5 C           2.0511    2.8496    1.2809 C.3     1  UNL1        0.1430
      6 O           1.3205    3.8568    0.5750 O.2     1  UNL1       -0.3888
      7 N           2.0833    5.0378    0.5755 N.2     1  UNL1       -0.0884
      8 C           1.3516    6.0878    0.3627 C.2     1  UNL1        0.0922
      9 C          -0.1515    6.1023    0.0858 C.3     1  UNL1        0.0233
     10 C          -0.2869    6.2699   -1.4420 C.3     1  UNL1        0.0325
     11 N          -1.6407    6.3624   -1.9358 N.ar    1  UNL1       -0.3362
     12 C          -2.2057    7.4560   -2.5323 C.ar    1  UNL1        0.0240
     13 C          -3.4769    7.0576   -2.8695 C.ar    1  UNL1        0.0454
     14 N          -3.6882    5.7531   -2.5025 N.ar    1  UNL1       -0.2441
     15 C          -2.5636    5.3578   -1.9541 C.ar    1  UNL1        0.0959
     16 C          -0.8584    7.2245    0.8876 C.3     1  UNL1       -0.0390
     17 C           0.0718    8.0238    1.8044 C.3     1  UNL1       -0.0250
     18 C           1.2835    8.4473    1.0171 C.ar    1  UNL1       -0.0201
     19 C           1.9786    7.4285    0.3451 C.ar    1  UNL1        0.0043
     20 C           3.1051    7.6839   -0.4351 C.ar    1  UNL1       -0.0524
     21 C           3.5381    8.9994   -0.5744 C.ar    1  UNL1       -0.0598
     22 C           2.8621   10.0309    0.0855 C.ar    1  UNL1       -0.0431
     23 C           1.7501    9.7568    0.8916 C.ar    1  UNL1        0.0448
     24 CL          0.9707   11.0849    1.6672 Cl      1  UNL1       -0.0832
     25 C           1.6278    0.5757    0.2616 C.ar    1  UNL1       -0.0552
     26 C           0.9644   -0.6531    0.2315 C.ar    1  UNL1       -0.0600
     27 C          -0.0329   -0.9319    1.1653 C.ar    1  UNL1       -0.0434
     28 H           0.0187    1.9910    2.9081 H       1  UNL1        0.0636
     29 H           2.1814    3.1604    2.3251 H       1  UNL1        0.0775
     30 H           3.0488    2.7362    0.8388 H       1  UNL1        0.0775
     31 H          -0.6051    5.1510    0.3832 H       1  UNL1        0.0383
     32 H           0.2365    7.1722   -1.7837 H       1  UNL1        0.0498
     33 H           0.1855    5.4272   -1.9630 H       1  UNL1        0.0498
     34 H          -1.6809    8.3926   -2.6655 H       1  UNL1        0.0825
     35 H          -4.2477    7.6363   -3.3605 H       1  UNL1        0.0845
     36 H          -2.3660    4.3669   -1.5619 H       1  UNL1        0.1029
     37 H          -1.6572    6.7812    1.4954 H       1  UNL1        0.0275
     38 H          -1.3569    7.9291    0.2119 H       1  UNL1        0.0275
     39 H           0.3959    7.4065    2.6528 H       1  UNL1        0.0314
     40 H          -0.4798    8.8675    2.2276 H       1  UNL1        0.0314
     41 H           3.6071    6.8790   -0.9660 H       1  UNL1        0.0624
     42 H           4.3899    9.2293   -1.2105 H       1  UNL1        0.0618
     43 H           3.2032   11.0565   -0.0415 H       1  UNL1        0.0632
     44 H           2.4059    0.7759   -0.4733 H       1  UNL1        0.0621
     45 H           1.2288   -1.3958   -0.5177 H       1  UNL1        0.0618
     46 H          -0.5426   -1.8914    1.1422 H       1  UNL1        0.0632
@<TRIPOS>BOND
     1     2     1    1
     2     3     2   ar
     3     3    28    1
     4     4     3   ar
     5     5     4    1
     6     5    29    1
     7     5    30    1
     8     6     5    1
     9     7     6    1
    10     8     7    2
    11     9     8    1
    12     9    31    1
    13    10     9    1
    14    10    32    1
    15    10    33    1
    16    11    10    1
    17    12    11   ar
    18    12    34    1
    19    13    12   ar
    20    13    35    1
    21    14    13   ar
    22    15    14   ar
    23    15    11   ar
    24    15    36    1
    25    16     9    1
    26    16    37    1
    27    16    38    1
    28    17    16    1
    29    17    39    1
    30    17    40    1
    31    18    17    1
    32    19    18   ar
    33    19     8    1
    34    20    19   ar
    35    20    41    1
    36    21    20   ar
    37    21    42    1
    38    22    21   ar
    39    22    43    1
    40    23    22   ar
    41    23    18   ar
    42    24    23    1
    43    25     4   ar
    44    25    44    1
    45    26    25   ar
    46    26    45    1
    47    27    26   ar
    48    27     2   ar
    49    27    46    1
@<TRIPOS>MOLECULE
mol_557_akc_md9112369
>540.sdf
 60 62 0 0 0
SMALL
GASTEIGER

@<TRIPOS>ATOM
      1 C           1.1329    0.2177    0.2525 C.3     1  UNL1       -0.0597
      2 C           2.6566    0.1322    0.1192 C.3     1  UNL1       -0.0139
      3 C           3.2144    1.5323   -0.1833 C.3     1  UNL1       -0.0597
      4 C           3.3843   -0.5339    1.3189 C.3     1  UNL1        0.0899
      5 O           4.7650   -0.6720    0.9400 O.3     1  UNL1       -0.3840
      6 C           3.3755    0.2694    2.6218 C.3     1  UNL1       -0.0191
      7 C           3.8797   -0.7570    3.6398 C.3     1  UNL1       -0.0408
      8 C           3.0797   -2.0459    3.3014 C.3     1  UNL1       -0.0054
      9 C           1.7528   -1.9322    4.0857 C.3     1  UNL1       -0.0556
     10 C           3.9168   -3.3131    3.6663 C.3     1  UNL1       -0.0103
     11 C           3.2207   -4.7134    3.6004 C.3     1  UNL1        0.0965
     12 O           2.0361   -4.5933    4.3993 O.3     1  UNL1       -0.3836
     13 C           3.9865   -5.8384    4.3242 C.2     1  UNL1       -0.0447
     14 C           5.1960   -5.7354    4.9038 C.2     1  UNL1       -0.0967
     15 C           3.2220   -7.1489    4.4151 C.3     1  UNL1       -0.0259
     16 C           2.7621   -7.6442    3.0483 C.3     1  UNL1       -0.0113
     17 C           2.0234   -6.5611    2.2497 C.3     1  UNL1        0.1119
     18 O           0.7534   -6.2898    2.8749 O.3     1  UNL1       -0.4609
     19 C          -0.3233   -7.0438    2.5592 C.2     1  UNL1        0.3042
     20 C          -1.5506   -6.4777    3.2127 C.3     1  UNL1        0.0332
     21 O          -0.3121   -8.0385    1.8483 O.2     1  UNL1       -0.2512
     22 C           2.8389   -5.2093    2.1438 C.3     1  UNL1        0.0409
     23 C           4.0936   -5.4819    1.2668 C.3     1  UNL1       -0.0529
     24 C           1.9169   -4.2134    1.3764 C.3     1  UNL1       -0.0227
     25 C           2.4559   -2.8712    0.9735 C.2     1  UNL1       -0.0808
     26 C           2.9076   -1.9126    1.7908 C.2     1  UNL1       -0.0361
     27 H           0.7032    0.7309   -0.6164 H       1  UNL1        0.0233
     28 H           0.6745   -0.7744    0.2904 H       1  UNL1        0.0233
     29 H           0.8298    0.7705    1.1454 H       1  UNL1        0.0233
     30 H           2.8739   -0.4687   -0.7749 H       1  UNL1        0.0326
     31 H           2.9521    2.2482    0.6021 H       1  UNL1        0.0233
     32 H           4.3043    1.5175   -0.2842 H       1  UNL1        0.0233
     33 H           2.8068    1.9099   -1.1278 H       1  UNL1        0.0233
     34 H           4.9787   -1.6196    0.9306 H       1  UNL1        0.2106
     35 H           4.0362    1.1401    2.5988 H       1  UNL1        0.0296
     36 H           2.3665    0.6157    2.8848 H       1  UNL1        0.0296
     37 H           4.9582   -0.9074    3.5175 H       1  UNL1        0.0275
     38 H           3.7189   -0.4117    4.6696 H       1  UNL1        0.0275
     39 H           0.9928   -2.6413    3.7532 H       1  UNL1        0.0238
     40 H           1.9358   -2.0896    5.1577 H       1  UNL1        0.0238
     41 H           1.2913   -0.9437    3.9960 H       1  UNL1        0.0238
     42 H           4.2564   -3.1502    4.6989 H       1  UNL1        0.0305
     43 H           4.8297   -3.3352    3.0532 H       1  UNL1        0.0305
     44 H           2.3220   -4.4768    5.3215 H       1  UNL1        0.2106
     45 H           5.6353   -6.5753    5.4369 H       1  UNL1        0.0535
     46 H           5.7827   -4.8239    4.8953 H       1  UNL1        0.0535
     47 H           3.8282   -7.9323    4.8862 H       1  UNL1        0.0312
     48 H           2.3511   -7.0121    5.0677 H       1  UNL1        0.0312
     49 H           3.6280   -8.0047    2.4785 H       1  UNL1        0.0304
     50 H           2.1058   -8.5086    3.1996 H       1  UNL1        0.0304
     51 H           1.8360   -6.9421    1.2354 H       1  UNL1        0.0740
     52 H          -2.3551   -6.4224    2.4776 H       1  UNL1        0.0342
     53 H          -1.8404   -7.0982    4.0604 H       1  UNL1        0.0342
     54 H          -1.3620   -5.4577    3.5678 H       1  UNL1        0.0342
     55 H           3.7996   -5.9140    0.3007 H       1  UNL1        0.0237
     56 H           4.6601   -4.5715    1.0520 H       1  UNL1        0.0237
     57 H           4.7857   -6.1920    1.7284 H       1  UNL1        0.0237
     58 H           1.6156   -4.7012    0.4361 H       1  UNL1        0.0315
     59 H           0.9756   -4.0482    1.9128 H       1  UNL1        0.0315
     60 H           2.4075   -2.6678   -0.0959 H       1  UNL1        0.0573
@<TRIPOS>BOND
     1     1    27    1
     2     1    28    1
     3     1    29    1
     4     2     1    1
     5     2    30    1
     6     3     2    1
     7     3    31    1
     8     3    32    1
     9     3    33    1
    10     4     2    1
    11     5     4    1
    12     5    34    1
    13     6     4    1
    14     6    35    1
    15     6    36    1
    16     7     6    1
    17     7    37    1
    18     7    38    1
    19     8     7    1
    20     8     9    1
    21     9    39    1
    22     9    40    1
    23     9    41    1
    24    10     8    1
    25    10    42    1
    26    10    43    1
    27    11    10    1
    28    11    12    1
    29    12    44    1
    30    13    11    1
    31    14    13    2
    32    14    45    1
    33    14    46    1
    34    15    13    1
    35    15    47    1
    36    15    48    1
    37    16    15    1
    38    16    49    1
    39    16    50    1
    40    17    16    1
    41    17    51    1
    42    18    17    1
    43    19    18    1
    44    20    19    1
    45    20    52    1
    46    20    53    1
    47    20    54    1
    48    21    19    2
    49    22    17    1
    50    22    11    1
    51    22    23    1
    52    23    55    1
    53    23    56    1
    54    23    57    1
    55    24    22    1
    56    24    58    1
    57    24    59    1
    58    25    24    1
    59    25    60    1
    60    26    25    2
    61    26     4    1
    62    26     8    1
@<TRIPOS>MOLECULE
mol_558_akc_0971_591691005
>541.sdf
 35 38 0 0 0
SMALL
GASTEIGER

@<TRIPOS>ATOM
      1 C           3.5290   -0.1198    2.8118 C.3     1  UNL1        0.0820
      2 O           2.8400    0.7377    1.9021 O.3     1  UNL1       -0.4646
      3 C           3.1055    0.5051    0.5901 C.2     1  UNL1        0.3384
      4 O           3.9244   -0.2847    0.1506 O.2     1  UNL1       -0.2452
      5 C           2.1235    1.2329   -0.2483 C.2     1  UNL1        0.0781
      6 C           1.6887    2.4430    0.1201 C.2     1  UNL1        0.0984
      7 O           0.7444    3.1642   -0.5547 O.2     1  UNL1       -0.4701
      8 C          -0.2539    2.3913   -1.2275 C.3     1  UNL1        0.2093
      9 O          -1.3117    2.0555   -0.3056 O.3     1  UNL1       -0.3286
     10 C          -1.2907    0.6423   -0.1066 C.3     1  UNL1        0.1377
     11 C          -2.6599    0.0901   -0.1018 C.2     1  UNL1        0.0652
     12 C          -3.5308   -0.0185    0.9140 C.2     1  UNL1       -0.0745
     13 C          -3.3064    0.5026    2.2969 C.3     1  UNL1       -0.0460
     14 C          -2.9403   -0.4189   -1.4660 C.2     1  UNL1        0.3384
     15 O          -3.9707   -0.9421   -1.8436 O.2     1  UNL1       -0.2452
     16 O          -1.8346   -0.2021   -2.2388 O.3     1  UNL1       -0.4470
     17 C          -0.7340    0.0442   -1.3749 C.3     1  UNL1        0.1716
     18 C           0.1145   -1.1776   -1.2821 C.2     1  UNL1       -0.0409
     19 C           1.4078   -0.8720   -1.4070 C.2     1  UNL1       -0.0758
     20 C           1.6304    0.6127   -1.5177 C.3     1  UNL1        0.0246
     21 C           0.2213    1.1062   -1.9050 C.3     1  UNL1        0.0784
     22 H           3.4488    0.3154    3.8118 H       1  UNL1        0.0661
     23 H           4.5906   -0.2158    2.5604 H       1  UNL1        0.0661
     24 H           3.0454   -1.0996    2.8212 H       1  UNL1        0.0661
     25 H           2.0605    3.0016    0.9708 H       1  UNL1        0.1029
     26 H          -0.7024    3.0560   -1.9738 H       1  UNL1        0.1060
     27 H          -0.7075    0.4081    0.7903 H       1  UNL1        0.0694
     28 H          -4.4932   -0.4963    0.7359 H       1  UNL1        0.0575
     29 H          -3.3189   -0.3222    3.0162 H       1  UNL1        0.0272
     30 H          -2.3556    1.0328    2.4034 H       1  UNL1        0.0272
     31 H          -4.1073    1.2009    2.5604 H       1  UNL1        0.0272
     32 H          -0.2720   -2.1812   -1.1489 H       1  UNL1        0.0609
     33 H           2.2152   -1.5941   -1.3859 H       1  UNL1        0.0576
     34 H           2.3369    0.8250   -2.3317 H       1  UNL1        0.0401
     35 H           0.1446    1.2060   -2.9959 H       1  UNL1        0.0414
@<TRIPOS>BOND
     1     1    22    1
     2     1    23    1
     3     1    24    1
     4     2     1    1
     5     3     2    1
     6     4     3    2
     7     5     3    1
     8     6     5    2
     9     6    25    1
    10     7     6    1
    11     8     7    1
    12     8    26    1
    13     9     8    1
    14    10     9    1
    15    10    27    1
    16    11    10    1
    17    12    11    2
    18    12    28    1
    19    13    12    1
    20    13    29    1
    21    13    30    1
    22    13    31    1
    23    14    11    1
    24    15    14    2
    25    16    14    1
    26    17    16    1
    27    17    10    1
    28    18    17    1
    29    18    32    1
    30    19    18    2
    31    19    33    1
    32    20    19    1
    33    20     5    1
    34    20    34    1
    35    21    20    1
    36    21     8    1
    37    21    17    1
    38    21    35    1
@<TRIPOS>MOLECULE
mol_559_akc_s00436_010_2073_x
>542.sdf
 33 34 0 0 0
SMALL
GASTEIGER

@<TRIPOS>ATOM
      1 C           1.1597   -1.2846   -3.5051 C.3     1  UNL1        0.0000
      2 SE          2.3091   -2.4406   -2.4082 Se      1  UNL1        0.0000
      3 C           3.5333   -1.1365   -1.5559 C.2     1  UNL1        0.0000
      4 N           3.1169   -0.2643   -0.4820 N.am    1  UNL1        0.0000
      5 C           1.8277   -0.0975   -0.0452 C.2     1  UNL1        0.0000
      6 O           0.9253   -0.7175   -0.5845 O.2     1  UNL1        0.0000
      7 C           1.4408    0.8375    1.0699 C.ar    1  UNL1        0.0000
      8 C           2.3674    1.5714    1.8472 C.ar    1  UNL1        0.0000
      9 C           1.9144    2.4134    2.8714 C.ar    1  UNL1        0.0000
     10 C           0.5475    2.5281    3.1189 C.ar    1  UNL1        0.0000
     11 N          -0.3361    1.8254    2.3696 N.ar    1  UNL1        0.0000
     12 C           0.0728    0.9970    1.3713 C.ar    1  UNL1        0.0000
     13 N           4.8035   -1.1575   -1.8401 N.am    1  UNL1        0.0000
     14 C           5.4351   -1.9083   -2.8880 C.2     1  UNL1        0.0000
     15 O           4.8204   -2.1560   -3.9153 O.2     1  UNL1        0.0000
     16 C           6.8686   -2.3181   -2.7879 C.ar    1  UNL1        0.0000
     17 C           7.5924   -2.1866   -1.5884 C.ar    1  UNL1        0.0000
     18 N           8.8933   -2.5854   -1.5212 N.ar    1  UNL1        0.0000
     19 C           9.5413   -3.1128   -2.5937 C.ar    1  UNL1        0.0000
     20 C           8.8717   -3.2602   -3.8068 C.ar    1  UNL1        0.0000
     21 C           7.5349   -2.8669   -3.9020 C.ar    1  UNL1        0.0000
     22 H           0.2487   -0.9759   -2.9510 H       1  UNL1        0.0000
     23 H           1.6977   -0.4072   -3.9134 H       1  UNL1        0.0000
     24 H           0.8198   -1.8865   -4.3760 H       1  UNL1        0.0000
     25 H           3.8630    0.2807   -0.0295 H       1  UNL1        0.0000
     26 H           3.4309    1.5065    1.6870 H       1  UNL1        0.0000
     27 H           2.6170    2.9756    3.4741 H       1  UNL1        0.0000
     28 H           0.1843    3.1739    3.9075 H       1  UNL1        0.0000
     29 H          -0.6844    0.4661    0.8096 H       1  UNL1        0.0000
     30 H           7.1251   -1.7835   -0.7008 H       1  UNL1        0.0000
     31 H          10.5768   -3.4181   -2.5056 H       1  UNL1        0.0000
     32 H           9.3838   -3.6765   -4.6661 H       1  UNL1        0.0000
     33 H           7.0262   -2.9869   -4.8498 H       1  UNL1        0.0000
@<TRIPOS>BOND
     1     1    22    1
     2     1    23    1
     3     1    24    1
     4     2     1    1
     5     3     2    1
     6     4     3    1
     7     4    25    1
     8     5     4   am
     9     6     5    2
    10     7     5    1
    11     8     7   ar
    12     8    26    1
    13     9     8   ar
    14     9    27    1
    15    10     9   ar
    16    10    28    1
    17    11    10   ar
    18    12    11   ar
    19    12     7   ar
    20    12    29    1
    21    13     3    2
    22    14    13    1
    23    15    14    2
    24    16    14    1
    25    17    16   ar
    26    17    30    1
    27    18    17   ar
    28    19    18   ar
    29    19    31    1
    30    20    19   ar
    31    20    32    1
    32    21    20   ar
    33    21    16   ar
    34    21    33    1
@<TRIPOS>MOLECULE
mol_55_akc_aac02582_15
>55.sdf
 36 39 0 0 0
SMALL
GASTEIGER

@<TRIPOS>ATOM
      1 CL          2.4332   -1.6366   -0.2704 Cl      1  UNL1       -0.0820
      2 C           0.9860   -0.7068   -0.1341 C.ar    1  UNL1        0.0614
      3 C          -0.2334   -1.3776   -0.2366 C.ar    1  UNL1       -0.0144
      4 C          -1.4381   -0.6971   -0.1217 C.ar    1  UNL1        0.0914
      5 C          -1.4260    0.6888    0.1328 C.ar    1  UNL1        0.0914
      6 C          -0.2126    1.3558    0.2108 C.ar    1  UNL1       -0.0144
      7 C           0.9968    0.6732    0.0749 C.ar    1  UNL1        0.0614
      8 CL          2.4578    1.5852    0.1752 Cl      1  UNL1       -0.0820
      9 N          -2.5677    1.3695    0.3125 N.ar    1  UNL1       -0.2430
     10 C          -3.7495    0.6879    0.2231 C.ar    1  UNL1        0.0976
     11 C          -4.9308    1.5168    0.5585 C.ar    1  UNL1        0.0025
     12 C          -5.0141    2.8508    0.1153 C.ar    1  UNL1       -0.0525
     13 C          -6.1231    3.6504    0.4079 C.ar    1  UNL1       -0.0611
     14 C          -7.1780    3.1319    1.1526 C.ar    1  UNL1       -0.0617
     15 C          -7.1106    1.8259    1.6266 C.ar    1  UNL1       -0.0611
     16 C          -5.9906    1.0355    1.3493 C.ar    1  UNL1       -0.0525
     17 C          -3.7623   -0.6773   -0.1202 C.ar    1  UNL1        0.0976
     18 N          -2.5917   -1.3676   -0.2588 N.ar    1  UNL1       -0.2430
     19 C          -4.9647   -1.4979   -0.3959 C.ar    1  UNL1        0.0025
     20 C          -6.0645   -1.0077   -1.1249 C.ar    1  UNL1       -0.0525
     21 C          -7.2030   -1.7911   -1.3417 C.ar    1  UNL1       -0.0611
     22 C          -7.2511   -3.0985   -0.8694 C.ar    1  UNL1       -0.0617
     23 C          -6.1596   -3.6262   -0.1871 C.ar    1  UNL1       -0.0611
     24 C          -5.0313   -2.8338    0.0458 C.ar    1  UNL1       -0.0525
     25 H          -0.2550   -2.4512   -0.4068 H       1  UNL1        0.0654
     26 H          -0.2169    2.4306    0.3838 H       1  UNL1        0.0654
     27 H          -4.1990    3.2806   -0.4662 H       1  UNL1        0.0624
     28 H          -6.1588    4.6778    0.0547 H       1  UNL1        0.0618
     29 H          -8.0454    3.7483    1.3727 H       1  UNL1        0.0618
     30 H          -7.9277    1.4181    2.2169 H       1  UNL1        0.0618
     31 H          -5.9644    0.0272    1.7586 H       1  UNL1        0.0624
     32 H          -6.0560    0.0019   -1.5307 H       1  UNL1        0.0624
     33 H          -8.0497   -1.3762   -1.8828 H       1  UNL1        0.0618
     34 H          -8.1335   -3.7090   -1.0424 H       1  UNL1        0.0618
     35 H          -6.1813   -4.6544    0.1641 H       1  UNL1        0.0618
     36 H          -4.1881   -3.2703    0.5805 H       1  UNL1        0.0624
@<TRIPOS>BOND
     1     2     1    1
     2     3     2   ar
     3     3    25    1
     4     4     3   ar
     5     5     4   ar
     6     6     5   ar
     7     6    26    1
     8     7     6   ar
     9     7     2   ar
    10     8     7    1
    11     9     5   ar
    12    10     9   ar
    13    11    10    1
    14    12    11   ar
    15    12    27    1
    16    13    12   ar
    17    13    28    1
    18    14    13   ar
    19    14    29    1
    20    15    14   ar
    21    15    30    1
    22    16    15   ar
    23    16    11   ar
    24    16    31    1
    25    17    10   ar
    26    18    17   ar
    27    18     4   ar
    28    19    17    1
    29    20    19   ar
    30    20    32    1
    31    21    20   ar
    32    21    33    1
    33    22    21   ar
    34    22    34    1
    35    23    22   ar
    36    23    35    1
    37    24    23   ar
    38    24    19   ar
    39    24    36    1
@<TRIPOS>MOLECULE
mol_560_akc_aac00985_10
>543.sdf
 62 64 0 0 0
SMALL
GASTEIGER

@<TRIPOS>ATOM
      1 C           3.5353    1.0634    0.8037 C.3     1  UNL1        0.0804
      2 O           2.5467    0.2410    0.1890 O.3     1  UNL1       -0.4796
      3 C           3.0874   -0.8989   -0.3621 C.ar    1  UNL1        0.2153
      4 C           2.4519   -1.4170   -1.4605 C.ar    1  UNL1        0.0036
      5 C           2.9140   -2.6227   -2.0052 C.ar    1  UNL1       -0.0326
      6 C           2.0282   -3.2076   -3.0744 C.3     1  UNL1       -0.0388
      7 C           4.1346   -3.2164   -1.5163 C.ar    1  UNL1        0.0512
      8 C           4.8814   -4.3355   -2.0667 C.ar    1  UNL1        0.1793
      9 O           4.4437   -5.0433   -3.1650 O.3     1  UNL1       -0.4517
     10 C           4.4227   -4.4930   -4.4285 C.ar    1  UNL1        0.1292
     11 C           3.7795   -5.2989   -5.3776 C.ar    1  UNL1       -0.0193
     12 C           3.5265   -4.8239   -6.6629 C.ar    1  UNL1       -0.0578
     13 C           3.9122   -3.5317   -7.0061 C.ar    1  UNL1       -0.0499
     14 C           4.5876   -2.7199   -6.0794 C.ar    1  UNL1        0.0583
     15 C           4.8761   -3.2259   -4.7944 C.ar    1  UNL1       -0.0077
     16 C           4.9185   -1.2842   -6.4127 C.3     1  UNL1        0.4175
     17 F           4.6853   -0.9578   -7.7135 F       1  UNL1       -0.1659
     18 F           4.1772   -0.4118   -5.6725 F       1  UNL1       -0.1659
     19 F           6.2189   -0.9726   -6.1695 F       1  UNL1       -0.1659
     20 C           6.0013   -4.8610   -1.3938 C.ar    1  UNL1        0.1646
     21 O           6.8000   -5.9282   -1.6890 O.3     1  UNL1       -0.4913
     22 C           6.6746   -6.6215   -2.9156 C.3     1  UNL1        0.0790
     23 C           6.3748   -4.3011   -0.1804 C.ar    1  UNL1        0.0067
     24 C           5.6644   -3.2513    0.3981 C.ar    1  UNL1        0.0575
     25 N           5.9855   -2.8305    1.7174 N.pl3   1  UNL1       -0.3395
     26 C           6.1816   -3.8752    2.7318 C.3     1  UNL1        0.0181
     27 C           7.5117   -3.6221    3.4377 C.3     1  UNL1       -0.0467
     28 C           5.0220   -3.9048    3.7452 C.3     1  UNL1       -0.0300
     29 C           3.6794   -4.2579    3.0974 C.3     1  UNL1       -0.0110
     30 C           2.5734   -4.3876    4.1318 C.3     1  UNL1       -0.0353
     31 N           1.2903   -4.6583    3.4282 N.4     1  UNL1        0.2185
     32 C           4.6183   -2.6350   -0.3083 C.ar    1  UNL1        0.0996
     33 N           4.0842   -1.5339    0.2716 N.ar    1  UNL1       -0.2109
     34 H           3.9937    0.5683    1.6654 H       1  UNL1        0.0660
     35 H           4.2964    1.3748    0.0794 H       1  UNL1        0.0660
     36 H           3.0329    1.9650    1.1694 H       1  UNL1        0.0660
     37 H           1.5931   -0.8987   -1.8773 H       1  UNL1        0.0673
     38 H           2.2899   -2.8237   -4.0615 H       1  UNL1        0.0278
     39 H           2.0364   -4.2995   -3.0510 H       1  UNL1        0.0278
     40 H           0.9827   -2.9267   -2.8959 H       1  UNL1        0.0278
     41 H           3.4340   -6.2927   -5.1004 H       1  UNL1        0.0654
     42 H           2.9994   -5.4470   -7.3816 H       1  UNL1        0.0619
     43 H           3.6686   -3.1508   -7.9986 H       1  UNL1        0.0623
     44 H           5.3855   -2.5834   -4.0795 H       1  UNL1        0.0660
     45 H           5.7197   -7.1511   -2.9718 H       1  UNL1        0.0660
     46 H           6.8362   -5.9570   -3.7680 H       1  UNL1        0.0660
     47 H           7.4649   -7.3802   -2.9392 H       1  UNL1        0.0660
     48 H           7.2422   -4.7110    0.3338 H       1  UNL1        0.0674
     49 H           5.3924   -2.0387    1.9782 H       1  UNL1        0.1464
     50 H           6.2392   -4.8749    2.2858 H       1  UNL1        0.0495
     51 H           7.4562   -2.7548    4.1032 H       1  UNL1        0.0247
     52 H           7.7957   -4.4933    4.0382 H       1  UNL1        0.0247
     53 H           8.3134   -3.4400    2.7133 H       1  UNL1        0.0247
     54 H           5.2487   -4.6539    4.5156 H       1  UNL1        0.0285
     55 H           4.9379   -2.9382    4.2572 H       1  UNL1        0.0285
     56 H           3.4005   -3.4822    2.3769 H       1  UNL1        0.0317
     57 H           3.7734   -5.1989    2.5405 H       1  UNL1        0.0317
     58 H           2.7426   -5.2228    4.8167 H       1  UNL1        0.0813
     59 H           2.4301   -3.4644    4.7024 H       1  UNL1        0.0813
     60 H           1.0626   -3.8981    2.7744 H       1  UNL1        0.1994
     61 H           1.3374   -5.5314    2.8830 H       1  UNL1        0.1994
     62 H           0.5146   -4.7427    4.0909 H       1  UNL1        0.1994
@<TRIPOS>UNITY_ATOM_ATTR
31 1
charge 1
@<TRIPOS>BOND
     1     1    34    1
     2     1    35    1
     3     1    36    1
     4     2     1    1
     5     3     2    1
     6     4     3   ar
     7     4    37    1
     8     5     4   ar
     9     6     5    1
    10     6    38    1
    11     6    39    1
    12     6    40    1
    13     7     5   ar
    14     8     7   ar
    15     9     8    1
    16    10     9    1
    17    11    10   ar
    18    11    41    1
    19    12    11   ar
    20    12    42    1
    21    13    12   ar
    22    13    43    1
    23    14    13   ar
    24    15    14   ar
    25    15    10   ar
    26    15    44    1
    27    16    14    1
    28    17    16    1
    29    18    16    1
    30    19    16    1
    31    20     8   ar
    32    21    20    1
    33    22    21    1
    34    22    45    1
    35    22    46    1
    36    22    47    1
    37    23    20   ar
    38    23    48    1
    39    24    23   ar
    40    25    24    1
    41    25    49    1
    42    26    25    1
    43    26    50    1
    44    27    26    1
    45    27    51    1
    46    27    52    1
    47    27    53    1
    48    28    26    1
    49    28    54    1
    50    28    55    1
    51    29    28    1
    52    29    56    1
    53    29    57    1
    54    30    29    1
    55    30    58    1
    56    30    59    1
    57    31    30    1
    58    31    60    1
    59    31    61    1
    60    31    62    1
    61    32    24   ar
    62    32     7   ar
    63    33    32   ar
    64    33     3   ar
@<TRIPOS>MOLECULE
mol_561_akc_aac00327_10
>544.sdf
 88 91 0 0 0
SMALL
GASTEIGER

@<TRIPOS>ATOM
      1 C           2.6293    3.5785    0.8845 C.3     1  UNL1       -0.0626
      2 C           4.1100    3.6759    1.2326 C.3     1  UNL1       -0.0446
      3 C           4.3098    3.7489    2.7466 C.3     1  UNL1       -0.0626
      4 C           4.9516    2.5831    0.5487 C.3     1  UNL1       -0.0235
      5 C           4.7404    1.1056    0.9664 C.3     1  UNL1        0.1029
      6 N           3.3799    0.6240    0.6772 N.am    1  UNL1       -0.2698
      7 C           2.9047    0.5772   -0.6101 C.2     1  UNL1        0.4014
      8 O           3.5963    0.8648   -1.5758 O.2     1  UNL1       -0.2264
      9 O           1.5830    0.2282   -0.6721 O.3     1  UNL1       -0.4447
     10 C           0.9190    0.2602   -1.9795 C.3     1  UNL1        0.1068
     11 C           1.5463   -0.7570   -2.9447 C.3     1  UNL1       -0.0253
     12 C          -0.5599   -0.1371   -1.7836 C.3     1  UNL1       -0.0253
     13 C           0.9229    1.6802   -2.5705 C.3     1  UNL1       -0.0253
     14 C           5.1998    0.8534    2.4341 C.2     1  UNL1        0.2366
     15 O           4.3762    0.5717    3.3090 O.2     1  UNL1       -0.2735
     16 N           6.5562    0.9505    2.7154 N.am    1  UNL1       -0.2884
     17 C           7.6022    1.4193    1.8234 C.3     1  UNL1        0.0156
     18 C           8.8323    0.7390    2.3610 C.3     1  UNL1       -0.0350
     19 C           8.6245    0.7866    3.8749 C.3     1  UNL1       -0.0243
     20 C           7.0927    0.8860    4.0841 C.3     1  UNL1        0.1025
     21 C           6.6229   -0.2740    4.9778 C.2     1  UNL1        0.2376
     22 O           6.7994   -1.4619    4.7149 O.2     1  UNL1       -0.2735
     23 N           5.8757    0.1965    6.0505 N.am    1  UNL1       -0.2686
     24 C           5.1743   -0.7004    6.9141 C.3     1  UNL1        0.1527
     25 C           6.2226    0.2427    7.4340 C.3     1  UNL1        0.1527
     26 C           7.4294   -0.3127    8.0890 C.2     1  UNL1        0.3306
     27 O           8.5452   -0.2263    7.6093 O.2     1  UNL1       -0.2486
     28 O           7.1066   -0.7434    9.3414 O.3     1  UNL1       -0.4585
     29 C           8.2131   -1.0035   10.2244 C.3     1  UNL1        0.1176
     30 C           7.7119   -1.3958   11.6100 C.ar    1  UNL1       -0.0103
     31 C           8.4680   -2.2688   12.4104 C.ar    1  UNL1       -0.0554
     32 C           8.0425   -2.6123   13.7017 C.ar    1  UNL1       -0.0614
     33 C           6.8623   -2.0785   14.2128 C.ar    1  UNL1       -0.0617
     34 C           6.1136   -1.1944   13.4397 C.ar    1  UNL1       -0.0614
     35 C           6.5405   -0.8551   12.1510 C.ar    1  UNL1       -0.0554
     36 C           3.7491   -0.4575    7.2093 C.2     1  UNL1        0.3306
     37 O           3.2742    0.6644    7.3030 O.2     1  UNL1       -0.2486
     38 O           3.0826   -1.6240    7.3974 O.3     1  UNL1       -0.4585
     39 C           1.6807   -1.4585    7.6321 C.3     1  UNL1        0.1176
     40 C           1.0261   -2.8017    7.8680 C.ar    1  UNL1       -0.0103
     41 C          -0.1166   -2.8895    8.6787 C.ar    1  UNL1       -0.0554
     42 C          -0.7572   -4.1151    8.8780 C.ar    1  UNL1       -0.0614
     43 C          -0.2696   -5.2663    8.2634 C.ar    1  UNL1       -0.0617
     44 C           0.8531   -5.1912    7.4423 C.ar    1  UNL1       -0.0614
     45 C           1.4919   -3.9659    7.2389 C.ar    1  UNL1       -0.0554
     46 H           2.1111    4.5041    1.1517 H       1  UNL1        0.0232
     47 H           2.4905    3.4170   -0.1898 H       1  UNL1        0.0232
     48 H           2.1388    2.7635    1.4250 H       1  UNL1        0.0232
     49 H           4.4762    4.6260    0.8196 H       1  UNL1        0.0296
     50 H           3.6641    3.0405    3.2739 H       1  UNL1        0.0232
     51 H           5.3490    3.5531    3.0274 H       1  UNL1        0.0232
     52 H           4.0606    4.7482    3.1166 H       1  UNL1        0.0232
     53 H           4.8178    2.6742   -0.5354 H       1  UNL1        0.0290
     54 H           5.9926    2.8728    0.6982 H       1  UNL1        0.0290
     55 H           5.3873    0.4744    0.3431 H       1  UNL1        0.0596
     56 H           2.7872    0.3189    1.4395 H       1  UNL1        0.1528
     57 H           1.5179   -1.7648   -2.5155 H       1  UNL1        0.0268
     58 H           1.0197   -0.7730   -3.9051 H       1  UNL1        0.0268
     59 H           2.5956   -0.5400   -3.1564 H       1  UNL1        0.0268
     60 H          -1.0441    0.4759   -1.0160 H       1  UNL1        0.0268
     61 H          -1.1262   -0.0172   -2.7176 H       1  UNL1        0.0268
     62 H          -0.6612   -1.1820   -1.4709 H       1  UNL1        0.0268
     63 H           0.4671    2.3908   -1.8717 H       1  UNL1        0.0268
     64 H           1.9307    2.0460   -2.7783 H       1  UNL1        0.0268
     65 H           0.3664    1.7192   -3.5140 H       1  UNL1        0.0268
     66 H           7.6927    2.5077    1.9531 H       1  UNL1        0.0465
     67 H           7.4169    1.1930    0.7736 H       1  UNL1        0.0465
     68 H           8.8470   -0.3016    2.0147 H       1  UNL1        0.0281
     69 H           9.7588    1.2224    2.0385 H       1  UNL1        0.0281
     70 H           9.0752   -0.0921    4.3470 H       1  UNL1        0.0288
     71 H           9.1170    1.6705    4.2922 H       1  UNL1        0.0288
     72 H           6.8615    1.8444    4.5711 H       1  UNL1        0.0597
     73 H           5.4515   -1.7477    6.8026 H       1  UNL1        0.0641
     74 H           5.9111    1.1843    7.8658 H       1  UNL1        0.0641
     75 H           8.8203   -1.8138    9.8062 H       1  UNL1        0.0749
     76 H           8.8215   -0.0971   10.3281 H       1  UNL1        0.0749
     77 H           9.4001   -2.6936   12.0430 H       1  UNL1        0.0621
     78 H           8.6324   -3.2970   14.3086 H       1  UNL1        0.0618
     79 H           6.5306   -2.3461   15.2147 H       1  UNL1        0.0618
     80 H           5.1992   -0.7677   13.8433 H       1  UNL1        0.0618
     81 H           5.9377   -0.1444   11.5668 H       1  UNL1        0.0621
     82 H           1.5386   -0.8233    8.5153 H       1  UNL1        0.0749
     83 H           1.2151   -0.9906    6.7573 H       1  UNL1        0.0749
     84 H          -0.5186   -2.0014    9.1618 H       1  UNL1        0.0621
     85 H          -1.6390   -4.1713    9.5111 H       1  UNL1        0.0618
     86 H          -0.7664   -6.2202    8.4197 H       1  UNL1        0.0618
     87 H           1.2316   -6.0864    6.9557 H       1  UNL1        0.0618
     88 H           2.3602   -3.9280    6.5843 H       1  UNL1        0.0621
@<TRIPOS>BOND
     1     1    46    1
     2     1    47    1
     3     1    48    1
     4     2     1    1
     5     2    49    1
     6     3     2    1
     7     3    50    1
     8     3    51    1
     9     3    52    1
    10     4     2    1
    11     4    53    1
    12     4    54    1
    13     6     5    1
    14     6    56    1
    15     7     6   am
    16     8     7    2
    17     9     7    1
    18    10     9    1
    19    11    10    1
    20    11    57    1
    21    11    58    1
    22    11    59    1
    23    12    10    1
    24    12    60    1
    25    12    61    1
    26    12    62    1
    27    13    10    1
    28    13    63    1
    29    13    64    1
    30    13    65    1
    31    14     5    1
    32    15    14    2
    33    16    14   am
    34    17    16    1
    35    17    66    1
    36    17    67    1
    37    18    17    1
    38    18    68    1
    39    18    69    1
    40    19    18    1
    41    19    70    1
    42    19    71    1
    43    20    19    1
    44    20    16    1
    45    22    21    2
    46    23    21   am
    47    24    23    1
    48    25    24    1
    49    25    23    1
    50    27    26    2
    51    28    26    1
    52    29    28    1
    53    29    75    1
    54    29    76    1
    55    30    29    1
    56    31    30   ar
    57    31    77    1
    58    32    31   ar
    59    32    78    1
    60    33    32   ar
    61    33    79    1
    62    34    33   ar
    63    34    80    1
    64    35    34   ar
    65    35    30   ar
    66    35    81    1
    67    37    36    2
    68    38    36    1
    69    39    38    1
    70    39    82    1
    71    39    83    1
    72    40    39    1
    73    41    40   ar
    74    41    84    1
    75    42    41   ar
    76    42    85    1
    77    43    42   ar
    78    43    86    1
    79    44    43   ar
    80    44    87    1
    81    45    44   ar
    82    45    40   ar
    83    45    88    1
    84     5    55    1
    85     5     4    1
    86    20    21    1
    87    20    72    1
    88    24    36    1
    89    24    73    1
    90    25    26    1
    91    25    74    1
@<TRIPOS>MOLECULE
mol_562_akc_aac00327_10
>545.sdf
 88 91 0 0 0
SMALL
GASTEIGER

@<TRIPOS>ATOM
      1 C           1.7315   -5.3500    1.5261 C.3     1  UNL1       -0.0626
      2 C           1.6670   -4.2274    0.4924 C.3     1  UNL1       -0.0446
      3 C           0.3147   -3.5145    0.5798 C.3     1  UNL1       -0.0626
      4 C           2.8255   -3.2199    0.6443 C.3     1  UNL1       -0.0235
      5 C           4.1611   -3.6498   -0.0280 C.3     1  UNL1        0.1029
      6 N           4.1714   -3.7114   -1.5023 N.am    1  UNL1       -0.2698
      7 C           3.1203   -3.4045   -2.3284 C.2     1  UNL1        0.4014
      8 O           2.1855   -2.6749   -2.0477 O.2     1  UNL1       -0.2264
      9 O           3.2145   -4.2023   -3.4419 O.3     1  UNL1       -0.4447
     10 C           2.1906   -5.0234   -4.8260 C.3     1  UNL1        0.1068
     11 C           2.6447   -3.0658   -4.9902 C.3     1  UNL1       -0.0253
     12 C           2.4872   -6.6724   -5.9267 C.3     1  UNL1       -0.0253
     13 C           0.6037   -6.2431   -4.8295 C.3     1  UNL1       -0.0253
     14 C           5.3135   -2.7787    0.5424 C.2     1  UNL1        0.2366
     15 O           5.0584   -1.7482    1.1774 O.2     1  UNL1       -0.2735
     16 N           6.6308   -3.1966    0.4154 N.am    1  UNL1       -0.2884
     17 C           7.6729   -2.3882    1.0337 C.3     1  UNL1        0.0156
     18 C           8.8366   -2.4853    0.0698 C.3     1  UNL1       -0.0350
     19 C           8.7373   -3.9213   -0.4153 C.3     1  UNL1       -0.0243
     20 C           7.2204   -4.1774   -0.5176 C.3     1  UNL1        0.1025
     21 C           6.9589   -5.6731   -0.2356 C.2     1  UNL1        0.2376
     22 O           6.3344   -6.0786    0.7382 O.2     1  UNL1       -0.2735
     23 N           7.5147   -6.4943   -1.2250 N.am    1  UNL1       -0.2686
     24 C           7.8477   -7.8729   -0.9234 C.3     1  UNL1        0.1527
     25 C           6.7793   -7.5449   -1.8892 C.3     1  UNL1        0.1527
     26 C           5.3646   -7.8078   -1.6002 C.2     1  UNL1        0.3306
     27 O           4.9466   -8.2917   -0.5625 O.2     1  UNL1       -0.2486
     28 O           4.6297   -7.3227   -2.6176 O.3     1  UNL1       -0.4585
     29 C           3.3194   -6.9295   -2.2501 C.3     1  UNL1        0.1176
     30 C           2.8493   -6.0686   -3.3787 C.ar    1  UNL1       -0.0103
     31 C           3.9789   -5.6323   -4.8410 C.ar    1  UNL1       -0.0554
     32 C           3.2645   -4.7078   -6.3397 C.ar    1  UNL1       -0.0614
     33 C           1.4526   -4.1561   -6.3166 C.ar    1  UNL1       -0.0617
     34 C           0.5654   -4.0931   -4.6588 C.ar    1  UNL1       -0.0614
     35 C           1.2514   -5.0751   -3.1844 C.ar    1  UNL1       -0.0554
     36 C           9.0821   -8.4583   -1.4667 C.2     1  UNL1        0.3306
     37 O           9.0727   -9.3192   -2.3320 O.2     1  UNL1       -0.2486
     38 O          10.1683   -7.8890   -0.9039 O.3     1  UNL1       -0.4585
     39 C          11.4109   -8.4043   -1.3852 C.3     1  UNL1        0.1176
     40 C          12.5270   -7.7268   -0.6344 C.ar    1  UNL1       -0.0103
     41 C          12.3510   -7.2759    0.6850 C.ar    1  UNL1       -0.0554
     42 C          13.3924   -6.6617    1.3729 C.ar    1  UNL1       -0.0614
     43 C          14.6339   -6.5068    0.7610 C.ar    1  UNL1       -0.0617
     44 C          14.8297   -6.9698   -0.5413 C.ar    1  UNL1       -0.0614
     45 C          13.7841   -7.5805   -1.2356 C.ar    1  UNL1       -0.0554
     46 H           0.8943   -6.0438    1.3883 H       1  UNL1        0.0232
     47 H           2.6569   -5.9249    1.4268 H       1  UNL1        0.0232
     48 H           1.6766   -4.9567    2.5462 H       1  UNL1        0.0232
     49 H           1.7263   -4.7026   -0.4843 H       1  UNL1        0.0296
     50 H           0.1426   -3.1028    1.5792 H       1  UNL1        0.0232
     51 H           0.2535   -2.6917   -0.1407 H       1  UNL1        0.0232
     52 H          -0.5019   -4.2077    0.3501 H       1  UNL1        0.0232
     53 H           2.5368   -2.2338    0.2606 H       1  UNL1        0.0290
     54 H           2.9929   -3.0646    1.7192 H       1  UNL1        0.0290
     55 H           4.3605   -4.6729    0.3012 H       1  UNL1        0.0596
     56 H           4.7782   -4.3863   -1.9360 H       1  UNL1        0.1528
     57 H           3.7324   -2.8829   -4.8521 H       1  UNL1        0.0268
     58 H           2.4785   -2.4906   -5.9287 H       1  UNL1        0.0268
     59 H           2.0871   -2.4514   -4.2615 H       1  UNL1        0.0268
     60 H           2.4707   -7.5806   -5.3002 H       1  UNL1        0.0268
     61 H           1.7465   -6.7395   -6.7400 H       1  UNL1        0.0268
     62 H           3.4351   -6.8275   -6.4910 H       1  UNL1        0.0268
     63 H           0.8668   -7.2320   -4.4136 H       1  UNL1        0.0268
     64 H          -0.3037   -6.0157   -4.2232 H       1  UNL1        0.0268
     65 H           0.1788   -6.3397   -5.8402 H       1  UNL1        0.0268
     66 H           7.9168   -2.8495    1.9981 H       1  UNL1        0.0465
     67 H           7.3708   -1.3515    1.2072 H       1  UNL1        0.0465
     68 H           8.6858   -1.7971   -0.7705 H       1  UNL1        0.0281
     69 H           9.7955   -2.2532    0.5406 H       1  UNL1        0.0281
     70 H           9.2483   -4.0712   -1.3709 H       1  UNL1        0.0288
     71 H           9.2048   -4.5883    0.3213 H       1  UNL1        0.0288
     72 H           6.8618   -3.9338   -1.5221 H       1  UNL1        0.0597
     73 H           7.5622   -8.2198    0.0631 H       1  UNL1        0.0641
     74 H           7.0254   -7.5822   -2.9470 H       1  UNL1        0.0641
     75 H           2.6623   -7.7947   -2.1303 H       1  UNL1        0.0749
     76 H           3.3512   -6.3391   -1.3310 H       1  UNL1        0.0749
     77 H           4.9829   -6.0483   -4.9015 H       1  UNL1        0.0621
     78 H           3.8606   -4.5810   -7.2408 H       1  UNL1        0.0618
     79 H           1.0221   -3.6491   -7.1829 H       1  UNL1        0.0618
     80 H          -0.4121   -3.6159   -4.5696 H       1  UNL1        0.0618
     81 H           0.6528   -5.1591   -2.2789 H       1  UNL1        0.0621
     82 H          11.4654   -9.4863   -1.2170 H       1  UNL1        0.0749
     83 H          11.4939   -8.1858   -2.4579 H       1  UNL1        0.0749
     84 H          11.3897   -7.3943    1.1845 H       1  UNL1        0.0621
     85 H          13.2364   -6.3070    2.3882 H       1  UNL1        0.0618
     86 H          15.4473   -6.0307    1.2970 H       1  UNL1        0.0618
     87 H          15.8023   -6.8551   -1.0150 H       1  UNL1        0.0618
     88 H          13.9570   -7.9388   -2.2485 H       1  UNL1        0.0621
@<TRIPOS>BOND
     1     1    46    1
     2     1    47    1
     3     1    48    1
     4     2     1    1
     5     2    49    1
     6     3     2    1
     7     3    50    1
     8     3    51    1
     9     3    52    1
    10     4     2    1
    11     4    53    1
    12     4    54    1
    13     5     4    1
    14     5    55    1
    15     6     5    1
    16     6    56    1
    17     7     6   am
    18     8     7    2
    19     9     7    1
    20    10     9    1
    21    11    10    1
    22    11    57    1
    23    11    58    1
    24    11    59    1
    25    12    10    1
    26    12    60    1
    27    12    61    1
    28    12    62    1
    29    13    10    1
    30    13    63    1
    31    13    64    1
    32    13    65    1
    33    14     5    1
    34    15    14    2
    35    16    14   am
    36    17    16    1
    37    17    66    1
    38    17    67    1
    39    18    17    1
    40    18    68    1
    41    18    69    1
    42    19    18    1
    43    19    70    1
    44    19    71    1
    45    20    19    1
    46    20    16    1
    47    20    72    1
    48    21    20    1
    49    22    21    2
    50    23    21   am
    51    24    23    1
    52    25    24    1
    53    25    23    1
    54    27    26    2
    55    28    26    1
    56    29    28    1
    57    29    75    1
    58    29    76    1
    59    30    29    1
    60    31    30   ar
    61    31    77    1
    62    32    31   ar
    63    32    78    1
    64    33    32   ar
    65    33    79    1
    66    34    33   ar
    67    34    80    1
    68    35    34   ar
    69    35    30   ar
    70    35    81    1
    71    37    36    2
    72    38    36    1
    73    39    38    1
    74    39    82    1
    75    39    83    1
    76    40    39    1
    77    41    40   ar
    78    41    84    1
    79    42    41   ar
    80    42    85    1
    81    43    42   ar
    82    43    86    1
    83    44    43   ar
    84    44    87    1
    85    45    44   ar
    86    45    40   ar
    87    45    88    1
    88    24    36    1
    89    24    73    1
    90    25    26    1
    91    25    74    1
@<TRIPOS>MOLECULE
mol_564_akc_jbmcl201008119
>547.sdf
 65 70 0 0 0
SMALL
GASTEIGER

@<TRIPOS>ATOM
      1 C           6.2962    1.6679   -8.8089 C.3     1  UNL1       -0.0613
      2 C           4.9750    2.3926   -8.5957 C.3     1  UNL1       -0.0305
      3 C           4.7159    2.9611   -7.2180 C.ar    1  UNL1       -0.0476
      4 C           5.7446    3.4907   -6.4391 C.ar    1  UNL1       -0.0583
      5 C           5.4475    4.3111   -5.3528 C.ar    1  UNL1       -0.0562
      6 C           4.1152    4.6460   -5.0342 C.ar    1  UNL1       -0.0212
      7 C           3.0877    3.9756   -5.6983 C.ar    1  UNL1       -0.0562
      8 C           3.3889    3.1507   -6.7908 C.ar    1  UNL1       -0.0583
      9 C           3.9289    5.8845   -4.1805 C.3     1  UNL1        0.0928
     10 N           4.3386    7.0840   -4.9664 N.am    1  UNL1       -0.2686
     11 C           3.5176    7.3971   -6.2048 C.3     1  UNL1        0.1283
     12 C           1.9824    7.2982   -5.9367 C.3     1  UNL1        0.0038
     13 C           1.7330    7.1386   -4.4737 C.ar    1  UNL1       -0.0147
     14 C           2.5537    6.3130   -3.7192 C.ar    1  UNL1        0.0456
     15 N           2.2033    6.4693   -2.4010 N.ar    1  UNL1       -0.3560
     16 C           1.4406    7.6194   -2.2797 C.ar    1  UNL1        0.0470
     17 C           1.1105    8.3631   -1.1398 C.ar    1  UNL1       -0.0378
     18 C           0.4795    9.5974   -1.3310 C.ar    1  UNL1       -0.0598
     19 C           0.1572   10.0516   -2.6074 C.ar    1  UNL1       -0.0611
     20 C           0.4497    9.2752   -3.7328 C.ar    1  UNL1       -0.0523
     21 C           1.1115    8.0420   -3.5694 C.ar    1  UNL1        0.0032
     22 C           3.9798    6.6697   -7.4821 C.2     1  UNL1        0.3279
     23 O           5.1562    6.4994   -7.7818 O.2     1  UNL1       -0.2487
     24 O           2.9245    6.3777   -8.2945 O.3     1  UNL1       -0.4666
     25 C           3.2129    5.7401   -9.5413 C.3     1  UNL1        0.0817
     26 C           4.9158    8.0989   -4.1886 C.2     1  UNL1        0.2897
     27 O           5.2925    7.9481   -3.0246 O.2     1  UNL1       -0.2663
     28 C           5.0803    9.4793   -4.7842 C.2     1  UNL1        0.2617
     29 O           4.1102   10.1502   -5.1152 O.2     1  UNL1       -0.2804
     30 C           6.4347   10.0743   -4.9412 C.2     1  UNL1        0.0980
     31 N           7.5262    9.4707   -4.5747 N.2     1  UNL1       -0.2476
     32 C           8.5466   10.3960   -4.8163 C.ar    1  UNL1        0.0678
     33 C           9.8792   10.2309   -4.5038 C.ar    1  UNL1       -0.0360
     34 C          10.7484   11.2882   -4.7746 C.ar    1  UNL1       -0.0597
     35 C          10.2729   12.4792   -5.3549 C.ar    1  UNL1       -0.0614
     36 C           8.9187   12.6368   -5.6652 C.ar    1  UNL1       -0.0562
     37 C           8.0707   11.5856   -5.3819 C.ar    1  UNL1       -0.0161
     38 C           6.5937   11.4568   -5.5440 C.3     1  UNL1        0.0207
     39 H           6.3585    1.3134   -9.8436 H       1  UNL1        0.0233
     40 H           7.1564    2.3249   -8.6448 H       1  UNL1        0.0233
     41 H           6.3858    0.8052   -8.1431 H       1  UNL1        0.0233
     42 H           4.9389    3.2342   -9.3001 H       1  UNL1        0.0311
     43 H           4.1598    1.7140   -8.8707 H       1  UNL1        0.0311
     44 H           6.7880    3.3786   -6.7217 H       1  UNL1        0.0620
     45 H           6.2719    4.8079   -4.8398 H       1  UNL1        0.0621
     46 H           2.0458    4.1717   -5.4584 H       1  UNL1        0.0621
     47 H           2.5678    2.7330   -7.3689 H       1  UNL1        0.0620
     48 H           4.5695    5.7659   -3.2978 H       1  UNL1        0.0616
     49 H           3.7014    8.4355   -6.4879 H       1  UNL1        0.0620
     50 H           1.5257    6.4385   -6.4385 H       1  UNL1        0.0337
     51 H           1.4824    8.1885   -6.3343 H       1  UNL1        0.0337
     52 H           2.6915    6.0524   -1.6194 H       1  UNL1        0.1657
     53 H           1.3978    8.0371   -0.1457 H       1  UNL1        0.0638
     54 H           0.2669   10.2281   -0.4706 H       1  UNL1        0.0618
     55 H          -0.2918   11.0331   -2.7369 H       1  UNL1        0.0618
     56 H           0.2476    9.6657   -4.7259 H       1  UNL1        0.0624
     57 H           4.2371    5.9034   -9.8864 H       1  UNL1        0.0661
     58 H           3.0109    4.6704   -9.4465 H       1  UNL1        0.0661
     59 H           2.5269    6.1462  -10.2902 H       1  UNL1        0.0661
     60 H          10.2254    9.3115   -4.0474 H       1  UNL1        0.0639
     61 H          11.8025   11.1895   -4.5273 H       1  UNL1        0.0618
     62 H          10.9674   13.2900   -5.5496 H       1  UNL1        0.0618
     63 H           8.5499   13.5598   -6.1001 H       1  UNL1        0.0621
     64 H           6.2910   11.4481   -6.5945 H       1  UNL1        0.0378
     65 H           6.0428   12.1985   -4.9628 H       1  UNL1        0.0378
@<TRIPOS>BOND
     1     1    39    1
     2     1    40    1
     3     1    41    1
     4     2     1    1
     5     2    42    1
     6     2    43    1
     7     3     2    1
     8     4     3   ar
     9     4    44    1
    10     5     4   ar
    11     5    45    1
    12     6     5   ar
    13     7     6   ar
    14     7    46    1
    15     8     7   ar
    16     8     3   ar
    17     8    47    1
    18    10     9    1
    19    11    10    1
    20    12    11    1
    21    12    50    1
    22    12    51    1
    23    13    12    1
    24    14    13   ar
    25    14     9    1
    26    15    14   ar
    27    15    52    1
    28    16    15   ar
    29    17    16   ar
    30    17    53    1
    31    18    17   ar
    32    18    54    1
    33    19    18   ar
    34    19    55    1
    35    20    19   ar
    36    20    56    1
    37    21    20   ar
    38    21    13   ar
    39    21    16   ar
    40    23    22    2
    41    24    22    1
    42    25    24    1
    43    25    57    1
    44    25    58    1
    45    25    59    1
    46    26    10   am
    47    27    26    2
    48    28    26    1
    49    29    28    2
    50    30    28    1
    51    31    30    2
    52    32    31    1
    53    33    32   ar
    54    33    60    1
    55    34    33   ar
    56    34    61    1
    57    35    34   ar
    58    35    62    1
    59    36    35   ar
    60    36    63    1
    61    37    36   ar
    62    37    32   ar
    63    38    37    1
    64    38    30    1
    65    38    64    1
    66    38    65    1
    67     9    48    1
    68     9     6    1
    69    11    22    1
    70    11    49    1
@<TRIPOS>MOLECULE
mol_565_akc_jbmcl201007078
>548.sdf
 80 82 0 0 0
SMALL
GASTEIGER

@<TRIPOS>ATOM
      1 C           1.9457   12.7840   -5.5349 C.3     1  UNL1       -0.0653
      2 C           1.8189   11.2830   -5.7060 C.3     1  UNL1       -0.0559
      3 C           3.1718   10.6322   -5.9771 C.3     1  UNL1       -0.0532
      4 C           3.0175    9.1339   -6.1394 C.3     1  UNL1       -0.0510
      5 C           4.3396    8.4388   -6.4154 C.3     1  UNL1       -0.0295
      6 C           4.0837    6.9502   -6.5590 C.3     1  UNL1        0.0477
      7 O           5.3007    6.2665   -6.8288 O.3     1  UNL1       -0.3797
      8 C           5.0318    4.8686   -6.9461 C.3     1  UNL1        0.0482
      9 C           6.3224    4.1370   -7.2341 C.3     1  UNL1       -0.0238
     10 C           6.1465    2.6194   -7.4593 C.3     1  UNL1       -0.0261
     11 C           5.5603    1.9047   -6.2159 C.3     1  UNL1       -0.0444
     12 C           5.4902    0.3848   -6.4513 C.3     1  UNL1       -0.0398
     13 C           4.5937    0.1120   -7.6627 C.3     1  UNL1       -0.0473
     14 C           5.1874    0.7770   -8.9144 C.3     1  UNL1       -0.0398
     15 C           5.2698    2.2975   -8.6901 C.3     1  UNL1       -0.0444
     16 C           6.6006    0.2299   -9.1757 C.3     1  UNL1       -0.0444
     17 C           7.5261    0.5189   -7.9733 C.3     1  UNL1       -0.0261
     18 C           8.9705    0.0317   -8.2877 C.3     1  UNL1       -0.0233
     19 C           9.8900    0.3224   -7.1157 C.3     1  UNL1        0.0554
     20 O          11.2770    0.1027   -7.3219 O.3     1  UNL1       -0.3274
     21 P          12.1743    0.6699   -6.0157 P.3     1  UNL1        0.2127
     22 O          11.0040    0.1789   -4.8401 O.co2   1  UNL1       -0.4373
     23 O          11.8899    2.1849   -5.8840 O.2     1  UNL1       -0.5172
     24 O          13.3447    1.1609   -7.1913 O.3     1  UNL1       -0.3221
     25 C          14.4616    1.8461   -6.6585 C.3     1  UNL1        0.0947
     26 C          15.3911    2.2369   -7.8050 C.3     1  UNL1       -0.0064
     27 N          14.7786    3.1839   -8.8735 N.4     1  UNL1        0.2385
     28 C          13.5765    2.5284   -9.5667 C.3     1  UNL1       -0.0417
     29 C          14.3047    4.4814   -8.2359 C.3     1  UNL1       -0.0417
     30 C          15.8454    3.4740   -9.9098 C.3     1  UNL1       -0.0417
     31 C           6.9023   -0.1654   -6.7237 C.3     1  UNL1       -0.0444
     32 C           7.5469    2.0444   -7.7093 C.3     1  UNL1       -0.0415
     33 H           0.9658   13.2274   -5.3439 H       1  UNL1        0.0230
     34 H           2.6023   13.0234   -4.6921 H       1  UNL1        0.0230
     35 H           2.3617   13.2433   -6.4377 H       1  UNL1        0.0230
     36 H           1.3730   10.8494   -4.8005 H       1  UNL1        0.0263
     37 H           1.1316   11.0676   -6.5360 H       1  UNL1        0.0263
     38 H           3.6150   11.0640   -6.8846 H       1  UNL1        0.0265
     39 H           3.8599   10.8511   -5.1478 H       1  UNL1        0.0265
     40 H           2.5673    8.7130   -5.2284 H       1  UNL1        0.0266
     41 H           2.3186    8.9272   -6.9610 H       1  UNL1        0.0266
     42 H           4.8065    8.8271   -7.3313 H       1  UNL1        0.0287
     43 H           5.0562    8.6165   -5.6052 H       1  UNL1        0.0287
     44 H           3.6459    6.5570   -5.6324 H       1  UNL1        0.0560
     45 H           3.3816    6.7715   -7.3844 H       1  UNL1        0.0560
     46 H           4.5940    4.5157   -6.0074 H       1  UNL1        0.0560
     47 H           4.3140    4.7222   -7.7589 H       1  UNL1        0.0560
     48 H           6.8015    4.5904   -8.1132 H       1  UNL1        0.0293
     49 H           7.0209    4.3175   -6.4073 H       1  UNL1        0.0293
     50 H           6.1751    2.1141   -5.3303 H       1  UNL1        0.0273
     51 H           4.5532    2.2757   -5.9940 H       1  UNL1        0.0273
     52 H           5.0710   -0.1020   -5.5622 H       1  UNL1        0.0301
     53 H           3.5850    0.4980   -7.4761 H       1  UNL1        0.0271
     54 H           4.4967   -0.9693   -7.8217 H       1  UNL1        0.0271
     55 H           4.5479    0.5700   -9.7786 H       1  UNL1        0.0301
     56 H           4.2553    2.6885   -8.5573 H       1  UNL1        0.0273
     57 H           5.6847    2.7815   -9.5839 H       1  UNL1        0.0273
     58 H           6.5477   -0.8511   -9.3583 H       1  UNL1        0.0273
     59 H           7.0091    0.6853  -10.0866 H       1  UNL1        0.0273
     60 H           8.9786   -1.0461   -8.4963 H       1  UNL1        0.0293
     61 H           9.3563    0.5185   -9.1917 H       1  UNL1        0.0293
     62 H           9.8006    1.3664   -6.8252 H       1  UNL1        0.0564
     63 H           9.5477   -0.3250   -6.3084 H       1  UNL1        0.0564
     64 H          14.1639    2.7309   -6.0898 H       1  UNL1        0.0618
     65 H          14.9890    1.1730   -5.9745 H       1  UNL1        0.0618
     66 H          16.2777    2.7455   -7.4082 H       1  UNL1        0.0838
     67 H          15.7132    1.3406   -8.3483 H       1  UNL1        0.0838
     68 H          12.7085    2.5527   -8.9085 H       1  UNL1        0.0778
     69 H          13.3475    3.1153  -10.4630 H       1  UNL1        0.0778
     70 H          13.8550    1.5098   -9.8530 H       1  UNL1        0.0778
     71 H          15.1442    4.9216   -7.6901 H       1  UNL1        0.0778
     72 H          13.9809    5.1551   -9.0351 H       1  UNL1        0.0778
     73 H          13.4682    4.2743   -7.5638 H       1  UNL1        0.0778
     74 H          16.6951    3.9521   -9.4135 H       1  UNL1        0.0778
     75 H          16.1552    2.5269  -10.3649 H       1  UNL1        0.0778
     76 H          15.4302    4.1402  -10.6720 H       1  UNL1        0.0778
     77 H           6.8566   -1.2522   -6.8705 H       1  UNL1        0.0273
     78 H           7.5093    0.0066   -5.8275 H       1  UNL1        0.0273
     79 H           8.0344    2.5591   -8.5502 H       1  UNL1        0.0276
     80 H           8.1333    2.2785   -6.8161 H       1  UNL1        0.0276
@<TRIPOS>UNITY_ATOM_ATTR
22 1
charge -1
27 1
charge 1
@<TRIPOS>BOND
     1     1    33    1
     2     1    34    1
     3     1    35    1
     4     2     1    1
     5     2    36    1
     6     2    37    1
     7     3     2    1
     8     3    38    1
     9     3    39    1
    10     4     3    1
    11     4    40    1
    12     4    41    1
    13     5     4    1
    14     5    42    1
    15     5    43    1
    16     6     5    1
    17     6    44    1
    18     6    45    1
    19     7     6    1
    20     8     7    1
    21     8    46    1
    22     8    47    1
    23     9     8    1
    24     9    48    1
    25     9    49    1
    26    10     9    1
    27    11    10    1
    28    11    50    1
    29    11    51    1
    30    12    11    1
    31    12    52    1
    32    13    12    1
    33    13    53    1
    34    13    54    1
    35    14    13    1
    36    14    55    1
    37    15    14    1
    38    15    10    1
    39    15    56    1
    40    15    57    1
    41    16    14    1
    42    16    58    1
    43    16    59    1
    44    17    16    1
    45    17    18    1
    46    18    60    1
    47    18    61    1
    48    19    18    1
    49    19    62    1
    50    19    63    1
    51    20    19    1
    52    23    21    2
    53    24    21    1
    54    25    24    1
    55    25    64    1
    56    25    65    1
    57    26    25    1
    58    26    66    1
    59    26    67    1
    60    27    26    1
    61    28    27    1
    62    28    68    1
    63    28    69    1
    64    28    70    1
    65    29    27    1
    66    29    71    1
    67    29    72    1
    68    29    73    1
    69    30    27    1
    70    30    74    1
    71    30    75    1
    72    30    76    1
    73    31    17    1
    74    31    12    1
    75    31    77    1
    76    31    78    1
    77    32    17    1
    78    32    10    1
    79    32    79    1
    80    32    80    1
    81    21    22    1
    82    21    20    1
@<TRIPOS>MOLECULE
mol_566_akc_tsw2010176
>549.sdf
 48 49 0 0 0
SMALL
GASTEIGER

@<TRIPOS>ATOM
      1 C           1.4637    0.4437   -0.0447 C.3     1  UNL1        0.0788
      2 O           2.5311   -0.3794   -0.5020 O.3     1  UNL1       -0.4951
      3 C           3.2458   -1.0641    0.4368 C.ar    1  UNL1        0.1201
      4 C           3.0234   -1.0545    1.8127 C.ar    1  UNL1       -0.0195
      5 C           3.8347   -1.8113    2.6630 C.ar    1  UNL1       -0.0501
      6 C           4.8881   -2.5829    2.1480 C.ar    1  UNL1       -0.0027
      7 C           5.7366   -3.4247    3.0523 C.3     1  UNL1       -0.0075
      8 N           5.1465   -4.8054    3.1848 N.4     1  UNL1        0.2340
      9 C           5.9506   -5.7362    4.0442 C.3     1  UNL1        0.0077
     10 C           5.2928   -7.1362    4.1595 C.3     1  UNL1        0.0077
     11 N           6.0793   -8.0812    5.0192 N.4     1  UNL1        0.2340
     12 C           5.4456   -9.4433    5.1394 C.3     1  UNL1       -0.0075
     13 C           6.2842  -10.3577    5.9781 C.ar    1  UNL1       -0.0027
     14 C           6.1151  -10.4098    7.3696 C.ar    1  UNL1       -0.0501
     15 C           6.8861  -11.2799    8.1496 C.ar    1  UNL1       -0.0195
     16 C           7.8405  -12.0997    7.5517 C.ar    1  UNL1        0.1201
     17 O           8.6431  -12.9999    8.1901 O.3     1  UNL1       -0.4951
     18 C           8.4405  -13.1822    9.5876 C.3     1  UNL1        0.0788
     19 C           8.0282  -12.0307    6.1705 C.ar    1  UNL1       -0.0195
     20 C           7.2619  -11.1670    5.3851 C.ar    1  UNL1       -0.0501
     21 C           5.1057   -2.5912    0.7641 C.ar    1  UNL1       -0.0501
     22 C           4.2892   -1.8349   -0.0786 C.ar    1  UNL1       -0.0195
     23 H           0.7085   -0.1484    0.4825 H       1  UNL1        0.0660
     24 H           1.8378    1.2576    0.5852 H       1  UNL1        0.0660
     25 H           0.9846    0.8891   -0.9217 H       1  UNL1        0.0660
     26 H           2.2277   -0.4566    2.2498 H       1  UNL1        0.0654
     27 H           3.6337   -1.7672    3.7330 H       1  UNL1        0.0623
     28 H           6.7508   -3.5393    2.6546 H       1  UNL1        0.0866
     29 H           5.7973   -2.9973    4.0591 H       1  UNL1        0.0866
     30 H           4.1854   -4.6658    3.5350 H       1  UNL1        0.2019
     31 H           5.0337   -5.1541    2.2193 H       1  UNL1        0.2019
     32 H           6.9436   -5.8159    3.5896 H       1  UNL1        0.0867
     33 H           6.0355   -5.2705    5.0315 H       1  UNL1        0.0867
     34 H           4.2963   -7.0509    4.6059 H       1  UNL1        0.0867
     35 H           5.2089   -7.5977    3.1700 H       1  UNL1        0.0867
     36 H           7.0348   -8.2455    4.6642 H       1  UNL1        0.2019
     37 H           6.2037   -7.7400    5.9859 H       1  UNL1        0.2019
     38 H           4.4519   -9.3027    5.5788 H       1  UNL1        0.0866
     39 H           5.3266   -9.8367    4.1238 H       1  UNL1        0.0866
     40 H           5.3635   -9.8054    7.8751 H       1  UNL1        0.0623
     41 H           6.7098  -11.3091    9.2216 H       1  UNL1        0.0654
     42 H           8.6556  -12.2596   10.1364 H       1  UNL1        0.0660
     43 H           7.4264  -13.5388    9.7969 H       1  UNL1        0.0660
     44 H           9.1429  -13.9472    9.9317 H       1  UNL1        0.0660
     45 H           8.7698  -12.6787    5.7036 H       1  UNL1        0.0654
     46 H           7.4290  -11.1730    4.3096 H       1  UNL1        0.0623
     47 H           5.9171   -3.1595    0.3127 H       1  UNL1        0.0623
     48 H           4.4704   -1.8296   -1.1531 H       1  UNL1        0.0654
@<TRIPOS>UNITY_ATOM_ATTR
8 1
charge 1
11 1
charge 1
@<TRIPOS>BOND
     1     1    23    1
     2     1    24    1
     3     1    25    1
     4     2     1    1
     5     3     2    1
     6     4     3   ar
     7     4    26    1
     8     5     4   ar
     9     5    27    1
    10     6     5   ar
    11     7     6    1
    12     7    28    1
    13     7    29    1
    14     8     7    1
    15     8    30    1
    16     8    31    1
    17     9     8    1
    18     9    32    1
    19     9    33    1
    20    10     9    1
    21    10    34    1
    22    10    35    1
    23    11    10    1
    24    11    36    1
    25    11    37    1
    26    12    11    1
    27    12    38    1
    28    12    39    1
    29    13    12    1
    30    14    13   ar
    31    14    40    1
    32    15    14   ar
    33    15    41    1
    34    16    15   ar
    35    17    16    1
    36    18    17    1
    37    18    42    1
    38    18    43    1
    39    18    44    1
    40    19    16   ar
    41    19    45    1
    42    20    19   ar
    43    20    13   ar
    44    20    46    1
    45    21     6   ar
    46    21    47    1
    47    22    21   ar
    48    22     3   ar
    49    22    48    1
@<TRIPOS>MOLECULE
mol_567_akc_ptr3052
>550.sdf
 40 39 0 0 0
SMALL
GASTEIGER

@<TRIPOS>ATOM
      1 O           5.0489    3.3285    5.5549 O.3     1  UNL1       -0.3757
      2 C           6.0045    2.3589    5.1502 C.3     1  UNL1        0.1348
      3 C           6.3542    2.5851    3.7089 C.2     1  UNL1       -0.0510
      4 C           7.5822    2.8767    3.2571 C.2     1  UNL1       -0.0993
      5 C           5.3795    0.9819    5.3036 C.1     1  UNL1       -0.0529
      6 C           4.8435   -0.1994    5.4351 C.1     1  UNL1       -0.0119
      7 C           4.2185   -1.5765    5.5884 C.1     1  UNL1       -0.0144
      8 C           3.6824   -2.7577    5.7200 C.1     1  UNL1       -0.0843
      9 C           3.0575   -4.1348    5.8733 C.3     1  UNL1        0.0282
     10 C           4.1123   -5.1915    5.7402 C.2     1  UNL1       -0.0762
     11 C           4.4193   -6.0878    6.6886 C.2     1  UNL1       -0.0870
     12 C           3.7390   -6.1181    8.0248 C.3     1  UNL1       -0.0347
     13 C           4.2491   -7.2231    8.9425 C.3     1  UNL1       -0.0496
     14 C           3.5125   -7.1486   10.2792 C.3     1  UNL1       -0.0525
     15 C           3.9822   -8.2355   11.2384 C.3     1  UNL1       -0.0496
     16 C           3.2416   -8.1350   12.5712 C.3     1  UNL1       -0.0350
     17 C           3.6879   -9.2095   13.5159 C.2     1  UNL1       -0.0911
     18 C           2.8804  -10.1593   14.0012 C.2     1  UNL1       -0.1026
     19 H           5.1304    4.0881    4.9567 H       1  UNL1        0.2114
     20 H           6.8794    2.4413    5.8034 H       1  UNL1        0.0777
     21 H           5.5386    2.4998    2.9930 H       1  UNL1        0.0601
     22 H           8.4327    2.9654    3.9266 H       1  UNL1        0.0533
     23 H           7.7626    3.0249    2.1964 H       1  UNL1        0.0533
     24 H           2.5221   -4.1667    6.8262 H       1  UNL1        0.0441
     25 H           2.3128   -4.2725    5.0811 H       1  UNL1        0.0441
     26 H           4.6471   -5.2253    4.7914 H       1  UNL1        0.0578
     27 H           5.1961   -6.8222    6.4866 H       1  UNL1        0.0569
     28 H           3.8890   -5.1509    8.5211 H       1  UNL1        0.0307
     29 H           2.6611   -6.2589    7.8739 H       1  UNL1        0.0307
     30 H           4.0861   -8.2027    8.4773 H       1  UNL1        0.0268
     31 H           5.3284   -7.1119    9.1021 H       1  UNL1        0.0268
     32 H           3.6746   -6.1626   10.7322 H       1  UNL1        0.0265
     33 H           2.4332   -7.2492   10.1088 H       1  UNL1        0.0265
     34 H           3.8107   -9.2207   10.7868 H       1  UNL1        0.0268
     35 H           5.0631   -8.1387   11.4012 H       1  UNL1        0.0268
     36 H           3.4370   -7.1607   13.0352 H       1  UNL1        0.0307
     37 H           2.1602   -8.1942   12.3983 H       1  UNL1        0.0307
     38 H           4.7347   -9.1983   13.8160 H       1  UNL1        0.0566
     39 H           1.8303  -10.2071   13.7296 H       1  UNL1        0.0532
     40 H           3.2579  -10.9143   14.6833 H       1  UNL1        0.0532
@<TRIPOS>BOND
     1     1    19    1
     2     3     2    1
     3     3    21    1
     4     4     3    2
     5     4    22    1
     6     4    23    1
     7     5     2    1
     8     6     5    3
     9     7     6    1
    10     8     7    3
    11     9     8    1
    12     9    24    1
    13     9    25    1
    14    10     9    1
    15    10    26    1
    16    11    10    2
    17    11    27    1
    18    12    11    1
    19    12    28    1
    20    12    29    1
    21    13    12    1
    22    13    30    1
    23    13    31    1
    24    14    13    1
    25    14    32    1
    26    14    33    1
    27    15    14    1
    28    15    34    1
    29    15    35    1
    30    16    15    1
    31    16    36    1
    32    16    37    1
    33    17    16    1
    34    17    38    1
    35    18    17    2
    36    18    39    1
    37    18    40    1
    38     2    20    1
    39     2     1    1
@<TRIPOS>MOLECULE
mol_568_akc_jbmc201005018
>551.sdf
 35 37 0 0 0
SMALL
GASTEIGER

@<TRIPOS>ATOM
      1 O           1.0375    0.3547   -0.1072 O.3     1  UNL1       -0.3914
      2 C           2.4684    0.2188   -0.1437 C.3     1  UNL1        0.0613
      3 C           2.8085   -1.1991    0.2962 C.3     1  UNL1       -0.0040
      4 C           4.2916   -1.5988    0.2871 C.3     1  UNL1        0.0482
      5 N           5.2118   -0.6930    0.9905 N.pl3   1  UNL1       -0.3367
      6 C           5.4900    0.5761    0.4788 C.ar    1  UNL1        0.0310
      7 C           4.5053    1.5697    0.3887 C.ar    1  UNL1       -0.0227
      8 C           3.0802    1.2805    0.7699 C.3     1  UNL1        0.0003
      9 C           4.8580    2.8723   -0.0075 C.ar    1  UNL1       -0.0384
     10 C           6.1763    3.1786   -0.3319 C.ar    1  UNL1        0.0413
     11 CL          6.5977    4.7849   -0.7795 Cl      1  UNL1       -0.0835
     12 C           7.1541    2.1941   -0.2796 C.ar    1  UNL1       -0.0416
     13 C           6.8106    0.9023    0.1271 C.ar    1  UNL1       -0.0392
     14 C           4.4133   -2.9355    1.0312 C.ar    1  UNL1       -0.0272
     15 C           4.8185   -4.1113    0.3898 C.ar    1  UNL1       -0.0558
     16 C           4.9449   -5.3015    1.1158 C.ar    1  UNL1       -0.0474
     17 C           4.6687   -5.3221    2.4872 C.ar    1  UNL1        0.0179
     18 BR          4.8505   -6.9255    3.4641 Br      1  UNL1       -0.0503
     19 C           4.2659   -4.1650    3.1397 C.ar    1  UNL1       -0.0474
     20 C           4.1459   -2.9786    2.4186 C.ar    1  UNL1       -0.0558
     21 H           0.7466    0.2222    0.8096 H       1  UNL1        0.2098
     22 H           2.7668    0.3760   -1.1855 H       1  UNL1        0.0597
     23 H           2.3580   -1.3556    1.2847 H       1  UNL1        0.0311
     24 H           2.2604   -1.8973   -0.3549 H       1  UNL1        0.0311
     25 H           4.6335   -1.7249   -0.7499 H       1  UNL1        0.0548
     26 H           6.0856   -1.1920    1.1603 H       1  UNL1        0.1467
     27 H           2.4805    2.1977    0.7163 H       1  UNL1        0.0339
     28 H           3.0332    0.9731    1.8232 H       1  UNL1        0.0339
     29 H           4.1025    3.6539   -0.0436 H       1  UNL1        0.0635
     30 H           8.1850    2.4257   -0.5320 H       1  UNL1        0.0633
     31 H           7.5962    0.1524    0.1832 H       1  UNL1        0.0636
     32 H           5.0447   -4.1144   -0.6748 H       1  UNL1        0.0621
     33 H           5.2685   -6.2065    0.6122 H       1  UNL1        0.0629
     34 H           4.0511   -4.1647    4.2073 H       1  UNL1        0.0629
     35 H           3.8544   -2.0702    2.9434 H       1  UNL1        0.0621
@<TRIPOS>BOND
     1     1    21    1
     2     2     1    1
     3     2    22    1
     4     3     2    1
     5     3    23    1
     6     3    24    1
     7     4     3    1
     8     5     4    1
     9     5    26    1
    10     6     5    1
    11     7     6   ar
    12     8     7    1
    13     8     2    1
    14     8    27    1
    15     8    28    1
    16     9     7   ar
    17     9    29    1
    18    10     9   ar
    19    11    10    1
    20    12    10   ar
    21    12    30    1
    22    13    12   ar
    23    13     6   ar
    24    13    31    1
    25    15    14   ar
    26    15    32    1
    27    16    15   ar
    28    16    33    1
    29    17    16   ar
    30    18    17    1
    31    19    17   ar
    32    19    34    1
    33    20    19   ar
    34    20    14   ar
    35    20    35    1
    36     4    14    1
    37     4    25    1
@<TRIPOS>MOLECULE
mol_569_akc_jacdkq189
>552.sdf
 36 37 0 0 0
SMALL
GASTEIGER

@<TRIPOS>ATOM
      1 C           1.8415   -1.3828   -0.5876 C.3     1  UNL1       -0.0306
      2 C           2.4656   -0.0079   -0.4349 C.3     1  UNL1        0.0900
      3 O           3.1671    0.2869   -1.6512 O.3     1  UNL1       -0.4616
      4 C           4.5105    0.0916   -1.6389 C.2     1  UNL1        0.3387
      5 O           5.1976   -0.1082   -0.6522 O.2     1  UNL1       -0.2452
      6 C           4.9903    0.0374   -3.0388 C.2     1  UNL1        0.0777
      7 C           5.9118   -0.8608   -3.4415 C.2     1  UNL1        0.0185
      8 C           6.6366   -1.8695   -2.5950 C.3     1  UNL1       -0.0259
      9 N           6.2387   -0.9046   -4.7855 N.am    1  UNL1       -0.3001
     10 C           5.5863   -0.2176   -5.7649 C.2     1  UNL1        0.1350
     11 S           5.9722   -0.4113   -7.3680 S.2     1  UNL1       -0.0185
     12 N           4.5834    0.6078   -5.3723 N.am    1  UNL1       -0.3152
     13 C           4.4036    1.0424   -3.9958 C.3     1  UNL1        0.0810
     14 C           4.9930    2.4350   -3.8166 C.ar    1  UNL1       -0.0191
     15 C           6.3583    2.6856   -4.0515 C.ar    1  UNL1       -0.0563
     16 C           6.8896    3.9678   -3.9027 C.ar    1  UNL1       -0.0580
     17 C           6.0661    5.0216   -3.5174 C.ar    1  UNL1       -0.0202
     18 C           4.7169    4.7804   -3.2792 C.ar    1  UNL1        0.1172
     19 O           3.8762    5.7857   -2.9016 O.3     1  UNL1       -0.5068
     20 C           4.1765    3.5049   -3.4235 C.ar    1  UNL1       -0.0149
     21 H           1.2851   -1.6686    0.3085 H       1  UNL1        0.0262
     22 H           1.1606   -1.3977   -1.4459 H       1  UNL1        0.0262
     23 H           2.6109   -2.1370   -0.7850 H       1  UNL1        0.0262
     24 H           1.6840    0.7485   -0.3101 H       1  UNL1        0.0695
     25 H           3.1126    0.0349    0.4477 H       1  UNL1        0.0695
     26 H           6.6181   -2.8533   -3.0779 H       1  UNL1        0.0290
     27 H           7.6832   -1.5702   -2.4759 H       1  UNL1        0.0290
     28 H           6.2069   -2.0082   -1.6021 H       1  UNL1        0.0290
     29 H           6.9482   -1.5561   -5.1004 H       1  UNL1        0.1535
     30 H           4.1433    1.1545   -6.1001 H       1  UNL1        0.1486
     31 H           3.3137    1.0933   -3.8834 H       1  UNL1        0.0601
     32 H           7.0227    1.8805   -4.3584 H       1  UNL1        0.0621
     33 H           7.9460    4.1387   -4.0938 H       1  UNL1        0.0619
     34 H           6.4916    6.0140   -3.4090 H       1  UNL1        0.0654
     35 H           4.3864    6.6091   -2.8439 H       1  UNL1        0.2921
     36 H           3.1169    3.3568   -3.2290 H       1  UNL1        0.0657
@<TRIPOS>BOND
     1     1    21    1
     2     1    22    1
     3     1    23    1
     4     2     1    1
     5     2    24    1
     6     2    25    1
     7     3     2    1
     8     4     3    1
     9     5     4    2
    10     6     4    1
    11     7     6    2
    12     8     7    1
    13     8    26    1
    14     8    27    1
    15     8    28    1
    16     9     7    1
    17     9    29    1
    18    10     9    1
    19    11    10    2
    20    12    10    1
    21    12    30    1
    22    13    12    1
    23    13     6    1
    24    15    14   ar
    25    15    32    1
    26    16    15   ar
    27    16    33    1
    28    17    16   ar
    29    17    34    1
    30    18    17   ar
    31    19    18    1
    32    19    35    1
    33    20    18   ar
    34    20    14   ar
    35    20    36    1
    36    13    14    1
    37    13    31    1
@<TRIPOS>MOLECULE
mol_56_akc_jejmech201412051
>56.sdf
 36 38 0 0 0
SMALL
GASTEIGER

@<TRIPOS>ATOM
      1 C           3.1309   -5.8672    2.1838 C.3     1  UNL1        0.0788
      2 O           2.4666   -5.4680    0.9900 O.3     1  UNL1       -0.4951
      3 C           3.2679   -5.1312   -0.0677 C.ar    1  UNL1        0.1202
      4 C           4.6488   -4.9650   -0.0150 C.ar    1  UNL1       -0.0182
      5 C           5.3587   -4.6541   -1.1774 C.ar    1  UNL1       -0.0371
      6 C           4.7033   -4.4699   -2.4034 C.ar    1  UNL1        0.0315
      7 N           5.4973   -4.2708   -3.5587 N.pl3   1  UNL1       -0.3145
      8 C           5.0575   -3.7540   -4.7957 C.ar    1  UNL1        0.0321
      9 C           4.9797   -2.3756   -4.9775 C.ar    1  UNL1       -0.0385
     10 C           4.6953   -1.8557   -6.2331 C.ar    1  UNL1       -0.0338
     11 C           4.5155   -2.6741   -7.3272 C.ar    1  UNL1        0.0780
     12 N           4.3990   -2.0813   -8.5010 N.ar    1  UNL1       -0.2146
     13 C           4.3088   -2.8565   -9.5795 C.ar    1  UNL1        0.2148
     14 N           4.3198   -2.1858  -10.7798 N.pl3   1  UNL1       -0.3274
     15 N           4.2239   -4.1910   -9.5552 N.ar    1  UNL1       -0.1995
     16 C           4.3475   -4.7830   -8.3593 C.ar    1  UNL1        0.1291
     17 N           4.3711   -6.1809   -8.3966 N.pl3   1  UNL1       -0.3425
     18 C           4.5261   -4.0683   -7.1614 C.ar    1  UNL1        0.0418
     19 C           4.7767   -4.6026   -5.8701 C.ar    1  UNL1       -0.0281
     20 C           3.3184   -4.6357   -2.4473 C.ar    1  UNL1       -0.0371
     21 C           2.6058   -4.9482   -1.2831 C.ar    1  UNL1       -0.0182
     22 H           3.8231   -6.6969    1.9996 H       1  UNL1        0.0660
     23 H           3.6477   -5.0183    2.6443 H       1  UNL1        0.0660
     24 H           2.3732   -6.2203    2.8900 H       1  UNL1        0.0660
     25 H           5.2096   -5.0866    0.9055 H       1  UNL1        0.0655
     26 H           6.4400   -4.5642   -1.1175 H       1  UNL1        0.0637
     27 H           6.3436   -3.7730   -3.2838 H       1  UNL1        0.1522
     28 H           5.1849   -1.6939   -4.1515 H       1  UNL1        0.0637
     29 H           4.6724   -0.7756   -6.3744 H       1  UNL1        0.0639
     30 H           3.6015   -2.5561  -11.3911 H       1  UNL1        0.1452
     31 H           4.2572   -1.1971  -10.5737 H       1  UNL1        0.1452
     32 H           4.2308   -6.4547   -9.3650 H       1  UNL1        0.1437
     33 H           3.6698   -6.5926   -7.7870 H       1  UNL1        0.1437
     34 H           4.8282   -5.6795   -5.7283 H       1  UNL1        0.0644
     35 H           2.7765   -4.5304   -3.3826 H       1  UNL1        0.0637
     36 H           1.5273   -5.0762   -1.3327 H       1  UNL1        0.0655
@<TRIPOS>BOND
     1     1    22    1
     2     1    23    1
     3     1    24    1
     4     2     1    1
     5     3     2    1
     6     4     3   ar
     7     4    25    1
     8     5     4   ar
     9     5    26    1
    10     6     5   ar
    11     7     6    1
    12     7    27    1
    13     8     7    1
    14     9     8   ar
    15     9    28    1
    16    10     9   ar
    17    10    29    1
    18    11    10   ar
    19    12    11   ar
    20    13    12   ar
    21    14    13    1
    22    14    30    1
    23    14    31    1
    24    15    13   ar
    25    16    15   ar
    26    17    16    1
    27    17    32    1
    28    17    33    1
    29    18    16   ar
    30    18    11   ar
    31    19    18   ar
    32    19     8   ar
    33    19    34    1
    34    20     6   ar
    35    20    35    1
    36    21    20   ar
    37    21     3   ar
    38    21    36    1
@<TRIPOS>MOLECULE
mol_570_akc_jacdkq189
>552_2.sdf
 36 37 0 0 0
SMALL
GASTEIGER

@<TRIPOS>ATOM
      1 C           2.9354   -1.5462   -0.1333 C.3     1  UNL1       -0.0306
      2 C           4.3007   -0.9096    0.0039 C.3     1  UNL1        0.0900
      3 O           4.5981   -0.1847   -1.1993 O.3     1  UNL1       -0.4616
      4 C           4.4419    1.1557   -1.1632 C.2     1  UNL1        0.3387
      5 O           3.9754    1.7866   -0.2253 O.2     1  UNL1       -0.2452
      6 C           4.9121    1.8041   -2.4179 C.2     1  UNL1        0.0777
      7 C           5.9491    1.3695   -3.1736 C.2     1  UNL1        0.0185
      8 C           6.7921    0.1303   -3.0171 C.3     1  UNL1       -0.0259
      9 N           6.3786    2.1685   -4.2183 N.am    1  UNL1       -0.3001
     10 C           5.8242    3.3454   -4.5916 C.2     1  UNL1        0.1350
     11 S           6.4307    4.2217   -5.8659 S.2     1  UNL1       -0.0185
     12 N           4.7476    3.7672   -3.8957 N.am    1  UNL1       -0.3152
     13 C           4.2558    3.1445   -2.6757 C.3     1  UNL1        0.0810
     14 C           2.7327    3.1544   -2.7287 C.ar    1  UNL1       -0.0191
     15 C           2.0060    3.9188   -1.7989 C.ar    1  UNL1       -0.0563
     16 C           0.6137    4.0014   -1.8692 C.ar    1  UNL1       -0.0580
     17 C          -0.0769    3.3212   -2.8695 C.ar    1  UNL1       -0.0202
     18 C           0.6337    2.5573   -3.7890 C.ar    1  UNL1        0.1172
     19 O          -0.0061    1.8823   -4.7854 O.3     1  UNL1       -0.5068
     20 C           2.0239    2.4664   -3.7285 C.ar    1  UNL1       -0.0149
     21 H           2.7057   -2.1688    0.7358 H       1  UNL1        0.0262
     22 H           2.1609   -0.7790   -0.2357 H       1  UNL1        0.0262
     23 H           2.8919   -2.1665   -1.0349 H       1  UNL1        0.0262
     24 H           4.3615   -0.2784    0.8977 H       1  UNL1        0.0695
     25 H           5.0653   -1.6872    0.1074 H       1  UNL1        0.0695
     26 H           6.8964   -0.3731   -3.9862 H       1  UNL1        0.0290
     27 H           7.7954    0.4065   -2.6732 H       1  UNL1        0.0290
     28 H           6.4129   -0.6213   -2.3299 H       1  UNL1        0.0290
     29 H           7.1810    1.8706   -4.7671 H       1  UNL1        0.1535
     30 H           4.3351    4.6453   -4.1819 H       1  UNL1        0.1486
     31 H           4.5815    3.8254   -1.8770 H       1  UNL1        0.0601
     32 H           2.5247    4.4604   -1.0088 H       1  UNL1        0.0621
     33 H           0.0699    4.6033   -1.1426 H       1  UNL1        0.0619
     34 H          -1.1583    3.4011   -2.9159 H       1  UNL1        0.0654
     35 H          -0.9586    2.0541   -4.7145 H       1  UNL1        0.2921
     36 H           2.5525    1.8793   -4.4750 H       1  UNL1        0.0657
@<TRIPOS>BOND
     1     1    21    1
     2     1    22    1
     3     1    23    1
     4     2     1    1
     5     2    24    1
     6     2    25    1
     7     3     2    1
     8     4     3    1
     9     5     4    2
    10     6     4    1
    11     7     6    2
    12     8     7    1
    13     8    26    1
    14     8    27    1
    15     8    28    1
    16     9     7    1
    17     9    29    1
    18    10     9    1
    19    11    10    2
    20    12    10    1
    21    12    30    1
    22    13    12    1
    23    13     6    1
    24    13    31    1
    25    14    13    1
    26    15    14   ar
    27    15    32    1
    28    16    15   ar
    29    16    33    1
    30    17    16   ar
    31    17    34    1
    32    18    17   ar
    33    19    18    1
    34    19    35    1
    35    20    18   ar
    36    20    14   ar
    37    20    36    1
@<TRIPOS>MOLECULE
mol_571_akc_aac00250_10
>553.sdf
 81 85 0 0 0
SMALL
GASTEIGER

@<TRIPOS>ATOM
      1 C           2.4078   -0.4180    1.8737 C.3     1  UNL1       -0.0281
      2 C           3.1826   -0.5761    0.5690 C.3     1  UNL1        0.0946
      3 C           2.3439   -1.3011   -0.4744 C.3     1  UNL1       -0.0281
      4 O           3.4674    0.7428    0.1055 O.3     1  UNL1       -0.4885
      5 C           4.5805    1.0412   -0.6292 C.ar    1  UNL1        0.1353
      6 C           5.5238    0.0805   -1.0111 C.ar    1  UNL1        0.0254
      7 C           6.6794    0.4254   -1.7197 C.ar    1  UNL1        0.1220
      8 N           7.7234   -0.5076   -1.9331 N.pl3   1  UNL1       -0.2050
      9 C           8.0541   -1.5742   -1.1575 C.2     1  UNL1        0.2565
     10 N           7.9662   -1.4197    0.0869 N.2     1  UNL1       -0.4083
     11 C           8.6696   -2.8607   -1.6216 C.ar    1  UNL1        0.1463
     12 C           8.7753   -3.2428   -2.9434 C.ar    1  UNL1       -0.0286
     13 C           9.3871   -4.4670   -3.1937 C.ar    1  UNL1       -0.0581
     14 C           9.8538   -5.2409   -2.1301 C.ar    1  UNL1       -0.0435
     15 C           9.6887   -4.7682   -0.8376 C.ar    1  UNL1        0.0285
     16 N           9.1025   -3.5830   -0.5447 N.ar    1  UNL1       -0.2477
     17 C           6.8239    1.7505   -2.1377 C.ar    1  UNL1       -0.0161
     18 C           5.8683    2.7226   -1.7870 C.ar    1  UNL1       -0.0437
     19 C           4.7552    2.3980   -0.9976 C.ar    1  UNL1        0.0591
     20 C           3.8144    3.4377   -0.5455 C.ar    1  UNL1        0.1392
     21 C           2.8615    3.4802    0.4582 C.ar    1  UNL1       -0.0151
     22 C           2.2084    4.7217    0.3702 C.ar    1  UNL1       -0.0151
     23 C           2.8747    5.4416   -0.5956 C.ar    1  UNL1        0.1392
     24 O           3.8327    4.6561   -1.1871 O.2     1  UNL1       -0.4546
     25 C           2.7330    6.8108   -1.0730 C.ar    1  UNL1        0.0591
     26 C           2.5900    7.9258   -0.2341 C.ar    1  UNL1        0.1353
     27 O           2.6695    7.9906    1.1325 O.3     1  UNL1       -0.4885
     28 C           3.6539    7.2521    1.8663 C.3     1  UNL1        0.0946
     29 C           5.0855    7.4911    1.3939 C.3     1  UNL1       -0.0281
     30 C           3.5028    7.6914    3.3232 C.3     1  UNL1       -0.0281
     31 C           2.2448    9.1852   -0.7787 C.ar    1  UNL1        0.0254
     32 C           2.0713    9.3952   -2.1475 C.ar    1  UNL1        0.1220
     33 N           1.6820   10.6154   -2.7568 N.pl3   1  UNL1       -0.2050
     34 C           1.2937   11.8320   -2.2906 C.2     1  UNL1        0.2565
     35 N           1.4299   12.1052   -1.0764 N.2     1  UNL1       -0.4083
     36 C           0.7194   12.9446   -3.1381 C.ar    1  UNL1        0.1463
     37 N           0.5524   14.0665   -2.3734 N.ar    1  UNL1       -0.2477
     38 C           0.0280   15.1372   -3.0141 C.ar    1  UNL1        0.0285
     39 C          -0.3356   15.1278   -4.3523 C.ar    1  UNL1       -0.0435
     40 C          -0.1529   13.9573   -5.0881 C.ar    1  UNL1       -0.0581
     41 C           0.3898   12.8309   -4.4755 C.ar    1  UNL1       -0.0286
     42 C           2.2808    8.2824   -2.9775 C.ar    1  UNL1       -0.0161
     43 C           2.6013    7.0193   -2.4542 C.ar    1  UNL1       -0.0437
     44 H           2.1334   -1.3899    2.2939 H       1  UNL1        0.0265
     45 H           3.0176    0.1187    2.6098 H       1  UNL1        0.0265
     46 H           1.4998    0.1762    1.7259 H       1  UNL1        0.0265
     47 H           4.0922   -1.1378    0.8089 H       1  UNL1        0.0727
     48 H           1.4739   -0.6990   -0.7621 H       1  UNL1        0.0265
     49 H           2.9216   -1.4693   -1.3887 H       1  UNL1        0.0265
     50 H           1.9960   -2.2699   -0.1042 H       1  UNL1        0.0265
     51 H           5.3475   -0.9661   -0.7966 H       1  UNL1        0.0695
     52 H           8.0758   -0.4624   -2.8910 H       1  UNL1        0.2983
     53 H           8.6232   -2.0865    0.5023 H       1  UNL1        0.2551
     54 H           8.4001   -2.6405   -3.7605 H       1  UNL1        0.0641
     55 H           9.5037   -4.8267   -4.2147 H       1  UNL1        0.0619
     56 H          10.3357   -6.1987   -2.3102 H       1  UNL1        0.0633
     57 H          10.0379   -5.3501    0.0130 H       1  UNL1        0.0830
     58 H           7.6961    2.0601   -2.7119 H       1  UNL1        0.0658
     59 H           6.0263    3.7501   -2.1140 H       1  UNL1        0.0627
     60 H           2.6435    2.6964    1.1710 H       1  UNL1        0.0656
     61 H           1.3992    5.0822    0.9896 H       1  UNL1        0.0656
     62 H           3.4291    6.1885    1.8546 H       1  UNL1        0.0727
     63 H           5.3759    8.5374    1.5307 H       1  UNL1        0.0265
     64 H           5.7811    6.8607    1.9598 H       1  UNL1        0.0265
     65 H           5.2115    7.2580    0.3348 H       1  UNL1        0.0265
     66 H           3.7650    8.7482    3.4453 H       1  UNL1        0.0265
     67 H           2.4614    7.5868    3.6489 H       1  UNL1        0.0265
     68 H           4.1357    7.0938    3.9864 H       1  UNL1        0.0265
     69 H           2.1217    9.9717   -0.0482 H       1  UNL1        0.0695
     70 H           1.6278   10.4939   -3.7696 H       1  UNL1        0.2983
     71 H           1.1786   13.0988   -0.9756 H       1  UNL1        0.2551
     72 H          -0.1020   16.0352   -2.4133 H       1  UNL1        0.0830
     73 H          -0.7577   16.0152   -4.8158 H       1  UNL1        0.0633
     74 H          -0.4393   13.9296   -6.1380 H       1  UNL1        0.0619
     75 H           0.5234   11.9195   -5.0415 H       1  UNL1        0.0641
     76 H           2.1637    8.3608   -4.0577 H       1  UNL1        0.0658
     77 H           2.6969    6.1774   -3.1396 H       1  UNL1        0.0627
     78 H           2.3776   11.9161   -0.8022 H       1  UNL1        0.2551
     79 H           7.0685   -1.7364    0.3940 H       1  UNL1        0.2551
     80 H           8.0953   -0.4546    0.3285 H       1  UNL1        0.2551
     81 H           0.7887   11.5403   -0.5511 H       1  UNL1        0.2551
@<TRIPOS>BOND
     1     1    44    1
     2     1    45    1
     3     1    46    1
     4     2     1    1
     5     2    47    1
     6     3     2    1
     7     3    48    1
     8     3    49    1
     9     3    50    1
    10     4     2    1
    11     5     4    1
    12     6     5   ar
    13     6    51    1
    14     7     6   ar
    15     8     7    1
    16     8    52    1
    17     9     8    1
    18    10     9    2
    19    10    53    1
    20    10    79    1
    21    11     9    1
    22    12    11   ar
    23    12    54    1
    24    13    12   ar
    25    13    55    1
    26    14    13   ar
    27    14    56    1
    28    15    14   ar
    29    15    57    1
    30    16    15   ar
    31    16    11   ar
    32    17     7   ar
    33    17    58    1
    34    18    17   ar
    35    18    59    1
    36    19    18   ar
    37    19     5   ar
    38    20    19    1
    39    21    20   ar
    40    21    60    1
    41    22    21   ar
    42    22    61    1
    43    23    22   ar
    44    24    23   ar
    45    24    20   ar
    46    25    23    1
    47    26    25   ar
    48    27    26    1
    49    28    27    1
    50    28    62    1
    51    29    28    1
    52    29    63    1
    53    29    64    1
    54    29    65    1
    55    30    28    1
    56    30    66    1
    57    30    67    1
    58    30    68    1
    59    31    26   ar
    60    31    69    1
    61    32    31   ar
    62    33    32    1
    63    33    70    1
    64    34    33    1
    65    35    34    2
    66    35    71    1
    67    35    78    1
    68    36    34    1
    69    37    36   ar
    70    38    37   ar
    71    38    72    1
    72    39    38   ar
    73    39    73    1
    74    40    39   ar
    75    40    74    1
    76    41    40   ar
    77    41    36   ar
    78    41    75    1
    79    42    32   ar
    80    42    76    1
    81    43    42   ar
    82    43    25   ar
    83    43    77    1
    84    10    80    1
    85    35    81    1
@<TRIPOS>MOLECULE
mol_572_akc_jparint200912009
>554.sdf
 40 42 0 0 0
SMALL
GASTEIGER

@<TRIPOS>ATOM
      1 C           0.9113    0.0015   -0.1712 C.3     1  UNL1       -0.0465
      2 C           2.4041   -0.0370   -0.1364 C.2     1  UNL1       -0.0866
      3 C           3.1949    0.8814   -0.7153 C.2     1  UNL1       -0.0588
      4 C           4.6675    0.8336   -0.6969 C.ar    1  UNL1       -0.0245
      5 C           5.3605   -0.3912   -0.6976 C.ar    1  UNL1       -0.0436
      6 C           6.7685   -0.3964   -0.7089 C.ar    1  UNL1        0.0242
      7 C           7.4317    0.8199   -0.7389 C.ar    1  UNL1        0.1360
      8 C           6.7928    2.0568   -0.7558 C.ar    1  UNL1       -0.0182
      9 C           5.3892    2.0364   -0.7399 C.ar    1  UNL1       -0.0511
     10 O           8.7750    0.6192   -0.7558 O.2     1  UNL1       -0.4545
     11 C           8.9916   -0.7304   -0.7508 C.ar    1  UNL1        0.1392
     12 C           7.7808   -1.4071   -0.6987 C.ar    1  UNL1        0.0031
     13 C           7.5290   -2.8687   -0.6282 C.3     1  UNL1       -0.0355
     14 C          10.3959   -1.1255   -0.8137 C.ar    1  UNL1        0.0212
     15 C          11.3755   -0.3977   -0.1225 C.ar    1  UNL1       -0.0056
     16 C          12.7354   -0.7497   -0.1615 C.ar    1  UNL1        0.1619
     17 C          13.1068   -1.8604   -0.9212 C.ar    1  UNL1        0.1585
     18 C          12.1481   -2.5867   -1.6303 C.ar    1  UNL1       -0.0159
     19 C          10.8012   -2.2280   -1.5744 C.ar    1  UNL1       -0.0474
     20 O          14.3798   -2.3434   -1.0225 O.3     1  UNL1       -0.5033
     21 O          13.5118    0.0803    0.5959 O.3     1  UNL1       -0.4914
     22 C          14.9228    0.0488    0.4705 C.3     1  UNL1        0.0790
     23 H           0.5304   -0.8955   -0.6699 H       1  UNL1        0.0272
     24 H           0.5161    0.0203    0.8489 H       1  UNL1        0.0272
     25 H           0.5298    0.8777   -0.7039 H       1  UNL1        0.0272
     26 H           2.8333   -0.8750    0.4076 H       1  UNL1        0.0569
     27 H           2.7529    1.7300   -1.2331 H       1  UNL1        0.0620
     28 H           4.8292   -1.3360   -0.7008 H       1  UNL1        0.0631
     29 H           7.3552    2.9817   -0.7830 H       1  UNL1        0.0655
     30 H           4.8616    2.9893   -0.7525 H       1  UNL1        0.0625
     31 H           6.8381   -3.0956    0.1906 H       1  UNL1        0.0279
     32 H           7.0797   -3.2220   -1.5618 H       1  UNL1        0.0279
     33 H           8.4437   -3.4403   -0.4474 H       1  UNL1        0.0279
     34 H          11.0788    0.4699    0.4658 H       1  UNL1        0.0662
     35 H          12.4503   -3.4489   -2.2203 H       1  UNL1        0.0655
     36 H          10.0778   -2.8084   -2.1382 H       1  UNL1        0.0626
     37 H          14.7678   -2.3090   -0.1364 H       1  UNL1        0.2923
     38 H          15.3318   -0.7889    1.0433 H       1  UNL1        0.0660
     39 H          15.2529    0.0293   -0.5718 H       1  UNL1        0.0660
     40 H          15.3168    0.9636    0.9250 H       1  UNL1        0.0660
@<TRIPOS>BOND
     1     1    23    1
     2     1    24    1
     3     1    25    1
     4     2     1    1
     5     2    26    1
     6     3     2    2
     7     3    27    1
     8     4     3    1
     9     5     4   ar
    10     5    28    1
    11     6     5   ar
    12     7     6   ar
    13     8     7   ar
    14     8    29    1
    15     9     8   ar
    16     9     4   ar
    17     9    30    1
    18    10     7   ar
    19    11    10   ar
    20    12    11   ar
    21    12     6   ar
    22    13    12    1
    23    13    31    1
    24    13    32    1
    25    13    33    1
    26    14    11    1
    27    15    14   ar
    28    15    34    1
    29    16    15   ar
    30    17    16   ar
    31    18    17   ar
    32    18    35    1
    33    19    18   ar
    34    19    14   ar
    35    19    36    1
    36    20    17    1
    37    20    37    1
    38    21    16    1
    39    22    21    1
    40    22    38    1
    41    22    39    1
    42    22    40    1
@<TRIPOS>MOLECULE
mol_573_akc_jejmech201002018
>555.sdf
 71 74 0 0 0
SMALL
GASTEIGER

@<TRIPOS>ATOM
      1 C           1.5095   -4.8287    3.3430 C.3     1  UNL1        0.0370
      2 O           1.7784   -4.1538    2.1188 O.3     1  UNL1       -0.3741
      3 C           3.1667   -3.8624    1.9249 C.3     1  UNL1        0.1188
      4 C           3.9488   -5.1446    1.6321 C.3     1  UNL1        0.1170
      5 O           5.2768   -5.1874    2.2627 O.3     1  UNL1       -0.3627
      6 C           5.8722   -5.4544    0.9516 C.3     1  UNL1        0.0931
      7 C           7.1663   -4.6970    0.7197 C.3     1  UNL1       -0.0335
      8 C           6.0710   -6.9608    0.7433 C.3     1  UNL1       -0.0335
      9 C           4.5981   -4.9201    0.2775 C.3     1  UNL1        0.1165
     10 O           4.4539   -3.5278   -0.0949 O.3     1  UNL1       -0.3588
     11 C           3.3691   -2.9120    0.6896 C.3     1  UNL1        0.1326
     12 C           4.0094   -1.5844    1.1829 C.3     1  UNL1        0.0767
     13 O           5.2665   -1.7844    1.8213 O.3     1  UNL1       -0.3920
     14 C           2.0891   -2.6283   -0.2699 C.3     1  UNL1        0.0594
     15 C           1.5480   -3.8990   -0.9553 C.2     1  UNL1        0.0643
     16 C           2.4487   -4.6400   -1.8823 C.2     1  UNL1        0.3371
     17 O           2.5153   -5.8560   -1.9874 O.2     1  UNL1       -0.2452
     18 O           3.2267   -3.7662   -2.5756 O.3     1  UNL1       -0.4646
     19 C           4.3095   -4.3589   -3.3014 C.3     1  UNL1        0.0820
     20 C           0.2546   -4.3013   -0.8379 C.2     1  UNL1        0.0232
     21 C          -0.1915   -5.7192   -1.1887 C.3     1  UNL1       -0.0255
     22 N          -0.7515   -3.4467   -0.2949 N.pl3   1  UNL1       -0.2760
     23 C          -0.3729   -2.2138    0.3166 C.2     1  UNL1        0.0232
     24 C          -1.4768   -1.3334    0.8951 C.3     1  UNL1       -0.0255
     25 C           0.9319   -1.8252    0.3544 C.2     1  UNL1        0.0643
     26 C           1.2495   -0.5170    0.9680 C.2     1  UNL1        0.3371
     27 O           1.0047   -0.2316    2.1336 O.2     1  UNL1       -0.2452
     28 O           1.8884    0.2674    0.0702 O.3     1  UNL1       -0.4646
     29 C           2.3457    1.5267    0.5796 C.3     1  UNL1        0.0820
     30 C          -2.1251   -3.6670   -0.7070 C.ar    1  UNL1        0.0382
     31 C          -3.1721   -3.7688    0.2210 C.ar    1  UNL1       -0.0398
     32 C          -4.4903   -4.0082   -0.1951 C.ar    1  UNL1       -0.0571
     33 C          -4.7894   -4.2015   -1.5478 C.ar    1  UNL1       -0.0503
     34 C          -6.1827   -4.5311   -1.9968 C.3     1  UNL1       -0.0397
     35 C          -3.7537   -4.1242   -2.4817 C.ar    1  UNL1       -0.0571
     36 C          -2.4485   -3.8320   -2.0691 C.ar    1  UNL1       -0.0398
     37 H           1.7810   -5.8846    3.2602 H       1  UNL1        0.0524
     38 H           2.0411   -4.3696    4.1817 H       1  UNL1        0.0524
     39 H           0.4348   -4.7701    3.5334 H       1  UNL1        0.0524
     40 H           3.5420   -3.3868    2.8393 H       1  UNL1        0.0653
     41 H           3.4215   -6.0952    1.7522 H       1  UNL1        0.0650
     42 H           7.9826   -5.1214    1.3131 H       1  UNL1        0.0258
     43 H           7.4588   -4.7515   -0.3360 H       1  UNL1        0.0258
     44 H           7.0942   -3.6445    0.9852 H       1  UNL1        0.0258
     45 H           5.1608   -7.5298    0.9612 H       1  UNL1        0.0258
     46 H           6.3467   -7.1701   -0.2966 H       1  UNL1        0.0258
     47 H           6.8648   -7.3454    1.3909 H       1  UNL1        0.0258
     48 H           4.2657   -5.5860   -0.5130 H       1  UNL1        0.0652
     49 H           4.1976   -0.9102    0.3417 H       1  UNL1        0.0587
     50 H           3.3932   -1.0834    1.9270 H       1  UNL1        0.0587
     51 H           5.8193   -2.2270    1.1517 H       1  UNL1        0.2095
     52 H           2.4682   -1.9952   -1.0866 H       1  UNL1        0.0433
     53 H           4.0904   -5.3719   -3.6531 H       1  UNL1        0.0661
     54 H           4.5253   -3.7339   -4.1713 H       1  UNL1        0.0661
     55 H           5.1984   -4.3746   -2.6612 H       1  UNL1        0.0661
     56 H          -0.9601   -6.0594   -0.4832 H       1  UNL1        0.0290
     57 H          -0.5850   -5.7866   -2.2055 H       1  UNL1        0.0290
     58 H           0.5980   -6.4625   -1.0722 H       1  UNL1        0.0290
     59 H          -2.2820   -1.1740    0.1712 H       1  UNL1        0.0290
     60 H          -1.8822   -1.7935    1.8024 H       1  UNL1        0.0290
     61 H          -1.1633   -0.3258    1.1739 H       1  UNL1        0.0290
     62 H           1.6068    2.2983    0.3494 H       1  UNL1        0.0661
     63 H           2.5455    1.5055    1.6566 H       1  UNL1        0.0661
     64 H           3.2842    1.7738    0.0746 H       1  UNL1        0.0661
     65 H          -2.9712   -3.6762    1.2841 H       1  UNL1        0.0636
     66 H          -5.2793   -4.0567    0.5522 H       1  UNL1        0.0621
     67 H          -6.4852   -3.8757   -2.8204 H       1  UNL1        0.0278
     68 H          -6.2328   -5.5723   -2.3331 H       1  UNL1        0.0278
     69 H          -6.9080   -4.4002   -1.1871 H       1  UNL1        0.0278
     70 H          -3.9526   -4.2965   -3.5375 H       1  UNL1        0.0621
     71 H          -1.6712   -3.7578   -2.8261 H       1  UNL1        0.0636
@<TRIPOS>BOND
     1     1    37    1
     2     1    38    1
     3     1    39    1
     4     2     1    1
     5     3     2    1
     6     3    40    1
     7     4     3    1
     8     4    41    1
     9     5     4    1
    10     6     5    1
    11     7     6    1
    12     7    42    1
    13     7    43    1
    14     7    44    1
    15     8     6    1
    16     8    45    1
    17     8    46    1
    18     8    47    1
    19     9     6    1
    20     9     4    1
    21     9    48    1
    22    10     9    1
    23    11    10    1
    24    11     3    1
    25    12    49    1
    26    12    50    1
    27    13    12    1
    28    13    51    1
    29    15    14    1
    30    16    15    1
    31    17    16    2
    32    18    16    1
    33    19    18    1
    34    19    53    1
    35    19    54    1
    36    19    55    1
    37    20    15    2
    38    21    20    1
    39    21    56    1
    40    21    57    1
    41    21    58    1
    42    22    20    1
    43    23    22    1
    44    24    23    1
    45    24    59    1
    46    24    60    1
    47    24    61    1
    48    25    23    2
    49    25    14    1
    50    26    25    1
    51    27    26    2
    52    28    26    1
    53    29    28    1
    54    29    62    1
    55    29    63    1
    56    29    64    1
    57    30    22    1
    58    31    30   ar
    59    31    65    1
    60    32    31   ar
    61    32    66    1
    62    33    32   ar
    63    34    33    1
    64    34    67    1
    65    34    68    1
    66    34    69    1
    67    35    33   ar
    68    35    70    1
    69    36    35   ar
    70    36    30   ar
    71    36    71    1
    72    11    12    1
    73    14    11    1
    74    14    52    1
@<TRIPOS>MOLECULE
mol_574_akc_jejmech201002015
>556.sdf
 60 65 0 0 0
SMALL
GASTEIGER

@<TRIPOS>ATOM
      1 C           1.5569   -3.4401    4.9896 C.3     1  UNL1        0.0138
      2 N           2.6542   -2.6833    4.4314 N.ar    1  UNL1       -0.3265
      3 C           3.2076   -1.5560    5.0170 C.ar    1  UNL1        0.0526
      4 C           2.9058   -0.8968    6.2189 C.ar    1  UNL1       -0.0375
      5 C           3.6524    0.2368    6.5549 C.ar    1  UNL1       -0.0598
      6 C           4.6638    0.7022    5.7166 C.ar    1  UNL1       -0.0610
      7 C           4.9560    0.0429    4.5196 C.ar    1  UNL1       -0.0504
      8 C           4.2259   -1.1081    4.1609 C.ar    1  UNL1        0.0292
      9 C           4.2690   -2.0075    3.0640 C.ar    1  UNL1        0.1376
     10 N           5.0596   -2.0507    1.9621 N.ar    1  UNL1       -0.1429
     11 N           4.8389   -3.0559    1.1106 N.ar    1  UNL1       -0.1213
     12 C           3.8843   -3.9938    1.3628 C.ar    1  UNL1        0.2187
     13 S           3.5343   -5.1736    0.0896 S.3     1  UNL1       -0.0084
     14 C           4.9849   -6.1949    0.0918 C.ar    1  UNL1        0.2018
     15 N           5.8268   -6.1585    1.1150 N.ar    1  UNL1       -0.1881
     16 C           6.8472   -7.0039    1.0505 C.ar    1  UNL1        0.2231
     17 N           7.0073   -7.8530    0.0412 N.ar    1  UNL1       -0.1807
     18 C           6.1265   -7.8334   -0.9509 C.ar    1  UNL1        0.2231
     19 N           5.0894   -7.0131   -0.9518 N.ar    1  UNL1       -0.1881
     20 N           6.3332   -8.6530   -2.0411 N.pl3   1  UNL1       -0.2995
     21 C           7.3523   -9.6932   -1.9918 C.3     1  UNL1        0.0149
     22 C           8.0428   -9.7610   -3.3556 C.3     1  UNL1       -0.0371
     23 C           7.0346   -9.9362   -4.4913 C.3     1  UNL1       -0.0502
     24 C           5.9196   -8.8918   -4.4198 C.3     1  UNL1       -0.0371
     25 C           5.2796   -8.8336   -3.0307 C.3     1  UNL1        0.0149
     26 N           7.7938   -6.9922    2.0495 N.pl3   1  UNL1       -0.2995
     27 C           7.6915   -6.0794    3.1771 C.3     1  UNL1        0.0149
     28 C           9.0322   -5.3643    3.3552 C.3     1  UNL1       -0.0371
     29 C          10.1930   -6.3546    3.4567 C.3     1  UNL1       -0.0502
     30 C          10.1917   -7.3381    2.2865 C.3     1  UNL1       -0.0371
     31 C           8.8297   -8.0134    2.1182 C.3     1  UNL1        0.0149
     32 N           3.0470   -4.0060    2.4280 N.ar    1  UNL1       -0.2005
     33 C           3.2989   -2.9760    3.2578 C.ar    1  UNL1        0.1646
     34 H           1.8691   -3.8307    5.9614 H       1  UNL1        0.0456
     35 H           0.6988   -2.7726    5.1024 H       1  UNL1        0.0456
     36 H           1.2914   -4.2678    4.3281 H       1  UNL1        0.0456
     37 H           2.1189   -1.2498    6.8796 H       1  UNL1        0.0638
     38 H           3.4413    0.7605    7.4831 H       1  UNL1        0.0618
     39 H           5.2314    1.5878    5.9955 H       1  UNL1        0.0618
     40 H           5.7484    0.4111    3.8704 H       1  UNL1        0.0625
     41 H           6.8845  -10.6582   -1.7581 H       1  UNL1        0.0464
     42 H           8.1224   -9.5184   -1.2327 H       1  UNL1        0.0464
     43 H           8.7647  -10.5850   -3.3684 H       1  UNL1        0.0280
     44 H           8.6083   -8.8344   -3.5180 H       1  UNL1        0.0280
     45 H           7.5496   -9.8590   -5.4557 H       1  UNL1        0.0266
     46 H           6.5975  -10.9403   -4.4387 H       1  UNL1        0.0266
     47 H           6.3375   -7.9063   -4.6630 H       1  UNL1        0.0280
     48 H           5.1557   -9.1124   -5.1735 H       1  UNL1        0.0280
     49 H           4.5384   -8.0267   -3.0341 H       1  UNL1        0.0464
     50 H           4.7381   -9.7660   -2.8267 H       1  UNL1        0.0464
     51 H           7.4487   -6.6503    4.0823 H       1  UNL1        0.0464
     52 H           6.9088   -5.3222    3.0616 H       1  UNL1        0.0464
     53 H           9.0018   -4.7356    4.2518 H       1  UNL1        0.0280
     54 H           9.2031   -4.6992    2.4991 H       1  UNL1        0.0280
     55 H          11.1432   -5.8091    3.4788 H       1  UNL1        0.0266
     56 H          10.1184   -6.9095    4.3996 H       1  UNL1        0.0266
     57 H          10.4458   -6.8004    1.3643 H       1  UNL1        0.0280
     58 H          10.9669   -8.0974    2.4398 H       1  UNL1        0.0280
     59 H           8.8741   -8.6626    1.2368 H       1  UNL1        0.0464
     60 H           8.6322   -8.6687    2.9762 H       1  UNL1        0.0464
@<TRIPOS>BOND
     1     1    34    1
     2     1    35    1
     3     1    36    1
     4     2     1    1
     5     3     2   ar
     6     4     3   ar
     7     4    37    1
     8     5     4   ar
     9     5    38    1
    10     6     5   ar
    11     6    39    1
    12     7     6   ar
    13     7    40    1
    14     8     7   ar
    15     8     3   ar
    16     9     8   ar
    17    10     9   ar
    18    11    10   ar
    19    12    11   ar
    20    13    12    1
    21    14    13    1
    22    15    14   ar
    23    16    15   ar
    24    17    16   ar
    25    18    17   ar
    26    19    18   ar
    27    19    14   ar
    28    20    18    1
    29    21    20    1
    30    21    41    1
    31    21    42    1
    32    22    21    1
    33    22    43    1
    34    22    44    1
    35    23    22    1
    36    23    45    1
    37    23    46    1
    38    24    23    1
    39    24    47    1
    40    24    48    1
    41    25    24    1
    42    25    20    1
    43    25    49    1
    44    25    50    1
    45    26    16    1
    46    27    26    1
    47    27    51    1
    48    27    52    1
    49    28    27    1
    50    28    53    1
    51    28    54    1
    52    29    28    1
    53    29    55    1
    54    29    56    1
    55    30    29    1
    56    30    57    1
    57    30    58    1
    58    31    30    1
    59    31    26    1
    60    31    59    1
    61    31    60    1
    62    32    12   ar
    63    33    32   ar
    64    33     2   ar
    65    33     9   ar
@<TRIPOS>MOLECULE
mol_575_akc_journalpntd0000675
>557.sdf
 43 45 0 0 0
SMALL
GASTEIGER

@<TRIPOS>ATOM
      1 C           1.1815   -0.1378    0.0343 C.3     1  UNL1       -0.0216
      2 C           2.7033    0.0159   -0.0330 C.3     1  UNL1       -0.0234
      3 C           3.0244    1.2623   -0.8698 C.3     1  UNL1       -0.0097
      4 C           4.5078    1.4223   -1.1420 C.3     1  UNL1       -0.0432
      5 C           5.0140    0.1947   -1.8707 C.3     1  UNL1       -0.0123
      6 C           4.7941   -1.0518   -1.0371 C.3     1  UNL1       -0.0313
      7 N           3.3409   -1.2349   -0.6438 N.4     1  UNL1        0.2406
      8 C           3.2019   -2.4595    0.2765 C.3     1  UNL1       -0.0004
      9 C           3.5791   -3.7740   -0.3521 C.ar    1  UNL1        0.0599
     10 C           2.6525   -4.4612   -1.1517 C.ar    1  UNL1        0.1360
     11 O           1.4031   -3.8926   -1.2537 O.3     1  UNL1       -0.5056
     12 C           2.9698   -5.6670   -1.8223 C.ar    1  UNL1        0.0437
     13 C           2.0698   -6.3812   -2.6562 C.ar    1  UNL1       -0.0490
     14 C           2.4583   -7.5509   -3.3079 C.ar    1  UNL1       -0.0596
     15 C           3.7543   -8.0170   -3.1560 C.ar    1  UNL1       -0.0413
     16 C           4.6479   -7.3184   -2.3404 C.ar    1  UNL1        0.0670
     17 CL          6.2613   -7.9419   -2.2155 Cl      1  UNL1       -0.0813
     18 C           4.2791   -6.1510   -1.6524 C.ar    1  UNL1        0.0930
     19 N           5.1570   -5.5048   -0.8533 N.ar    1  UNL1       -0.2497
     20 C           4.8203   -4.3749   -0.1932 C.ar    1  UNL1        0.0507
     21 C           5.9314   -3.8199    0.6508 C.3     1  UNL1       -0.0218
     22 H           0.8698   -0.9006    0.7517 H       1  UNL1        0.0284
     23 H           0.7171    0.8006    0.3588 H       1  UNL1        0.0284
     24 H           0.7623   -0.3949   -0.9449 H       1  UNL1        0.0284
     25 H           3.1262    0.1235    0.9731 H       1  UNL1        0.0848
     26 H           2.6621    2.1556   -0.3459 H       1  UNL1        0.0320
     27 H           2.4872    1.2227   -1.8266 H       1  UNL1        0.0320
     28 H           4.6840    2.3172   -1.7488 H       1  UNL1        0.0269
     29 H           5.0535    1.5568   -0.1995 H       1  UNL1        0.0269
     30 H           4.5077    0.0944   -2.8384 H       1  UNL1        0.0317
     31 H           6.0836    0.3066   -2.0795 H       1  UNL1        0.0317
     32 H           5.0923   -1.9270   -1.6205 H       1  UNL1        0.0814
     33 H           5.3767   -1.0022   -0.1108 H       1  UNL1        0.0814
     34 H           2.8135   -1.4719   -1.4969 H       1  UNL1        0.2039
     35 H           3.7792   -2.2401    1.1791 H       1  UNL1        0.0869
     36 H           2.1601   -2.5121    0.6026 H       1  UNL1        0.0869
     37 H           0.7489   -4.6049   -1.3874 H       1  UNL1        0.2922
     38 H           1.0536   -6.0360   -2.8244 H       1  UNL1        0.0625
     39 H           1.7564   -8.0901   -3.9407 H       1  UNL1        0.0618
     40 H           4.0710   -8.9201   -3.6732 H       1  UNL1        0.0633
     41 H           6.5670   -4.6330    1.0178 H       1  UNL1        0.0293
     42 H           6.5548   -3.1486    0.0533 H       1  UNL1        0.0293
     43 H           5.5642   -3.2887    1.5314 H       1  UNL1        0.0293
@<TRIPOS>UNITY_ATOM_ATTR
7 1
charge 1
@<TRIPOS>BOND
     1     1    22    1
     2     1    23    1
     3     1    24    1
     4     2     1    1
     5     2    25    1
     6     3     2    1
     7     3    26    1
     8     3    27    1
     9     4     3    1
    10     4    28    1
    11     4    29    1
    12     5     4    1
    13     5    30    1
    14     5    31    1
    15     6     5    1
    16     6    32    1
    17     6    33    1
    18     7     6    1
    19     7     2    1
    20     7    34    1
    21     8     7    1
    22     8    35    1
    23     8    36    1
    24     9     8    1
    25    10     9   ar
    26    11    10    1
    27    11    37    1
    28    12    10   ar
    29    13    12   ar
    30    13    38    1
    31    14    13   ar
    32    14    39    1
    33    15    14   ar
    34    15    40    1
    35    16    15   ar
    36    17    16    1
    37    18    16   ar
    38    18    12   ar
    39    19    18   ar
    40    20    19   ar
    41    20     9   ar
    42    21    20    1
    43    21    41    1
    44    21    42    1
    45    21    43    1
@<TRIPOS>MOLECULE
mol_576_akc_journalpntd0000675
>558.sdf
 51 53 0 0 0
SMALL
GASTEIGER

@<TRIPOS>ATOM
      1 C           1.9476    1.0414    0.7614 C.3     1  UNL1        0.0790
      2 O           2.4222    0.0223   -0.1250 O.3     1  UNL1       -0.4914
      3 C           3.0706    0.4921   -1.2424 C.ar    1  UNL1        0.1621
      4 C           2.6755    1.6673   -1.8854 C.ar    1  UNL1       -0.0077
      5 C           3.3692    2.1404   -3.0032 C.ar    1  UNL1       -0.0018
      6 C           2.9355    3.3955   -3.6453 C.2     1  UNL1        0.0529
      7 N           1.9272    4.0416   -3.1574 N.2     1  UNL1       -0.1875
      8 N           1.5820    5.2056   -3.7546 N.am    1  UNL1       -0.2029
      9 C           0.4745    5.8882   -3.2712 C.2     1  UNL1        0.2668
     10 O          -0.2990    5.4652   -2.4099 O.2     1  UNL1       -0.2683
     11 C           0.1901    7.2158   -3.8766 C.ar    1  UNL1        0.0799
     12 C          -1.1234    7.7110   -3.8780 C.ar    1  UNL1        0.1319
     13 O          -2.1628    7.0033   -3.3306 O.3     1  UNL1       -0.5057
     14 C          -1.4130    8.9622   -4.4420 C.ar    1  UNL1       -0.0083
     15 C          -2.8017    9.5334   -4.4659 C.3     1  UNL1       -0.0362
     16 C          -0.3630    9.7153   -4.9863 C.ar    1  UNL1       -0.0553
     17 C           0.9467    9.2433   -4.9610 C.ar    1  UNL1       -0.0606
     18 C           1.2297    7.9967   -4.4027 C.ar    1  UNL1       -0.0460
     19 C           4.4686    1.4469   -3.4926 C.ar    1  UNL1       -0.0494
     20 C           4.8446    0.2503   -2.8796 C.ar    1  UNL1       -0.0157
     21 C           4.1228   -0.2650   -1.7867 C.ar    1  UNL1        0.1624
     22 O           4.4003   -1.4879   -1.2141 O.3     1  UNL1       -0.4837
     23 C           5.0990   -2.4044   -2.0669 C.3     1  UNL1        0.1148
     24 C           4.9172   -3.8551   -1.6837 C.ar    1  UNL1       -0.0104
     25 C           3.7844   -4.3043   -0.9964 C.ar    1  UNL1       -0.0554
     26 C           3.5880   -5.6693   -0.7721 C.ar    1  UNL1       -0.0614
     27 C           4.5162   -6.5990   -1.2399 C.ar    1  UNL1       -0.0617
     28 C           5.6478   -6.1667   -1.9260 C.ar    1  UNL1       -0.0614
     29 C           5.8469   -4.8033   -2.1482 C.ar    1  UNL1       -0.0554
     30 H           2.7711    1.6820    1.0986 H       1  UNL1        0.0660
     31 H           1.1498    1.6441    0.3151 H       1  UNL1        0.0660
     32 H           1.5142    0.5556    1.6403 H       1  UNL1        0.0660
     33 H           1.8070    2.2233   -1.5457 H       1  UNL1        0.0662
     34 H           3.4981    3.7470   -4.5253 H       1  UNL1        0.0851
     35 H           2.0995    5.5256   -4.5622 H       1  UNL1        0.1776
     36 H          -1.7866    6.2604   -2.8056 H       1  UNL1        0.2922
     37 H          -2.8219   10.4848   -3.9235 H       1  UNL1        0.0279
     38 H          -3.1160    9.7068   -5.5016 H       1  UNL1        0.0279
     39 H          -3.5417    8.8754   -4.0021 H       1  UNL1        0.0279
     40 H          -0.5675   10.6924   -5.4203 H       1  UNL1        0.0621
     41 H           1.7514    9.8550   -5.3637 H       1  UNL1        0.0618
     42 H           2.2655    7.6765   -4.3559 H       1  UNL1        0.0626
     43 H           5.0316    1.8104   -4.3473 H       1  UNL1        0.0625
     44 H           5.7115   -0.2676   -3.2787 H       1  UNL1        0.0655
     45 H           4.7344   -2.3283   -3.0999 H       1  UNL1        0.0748
     46 H           6.1673   -2.1586   -2.0267 H       1  UNL1        0.0748
     47 H           3.0379   -3.5937   -0.6468 H       1  UNL1        0.0621
     48 H           2.7008   -6.0069   -0.2442 H       1  UNL1        0.0618
     49 H           4.3517   -7.6609   -1.0768 H       1  UNL1        0.0618
     50 H           6.3673   -6.8903   -2.3004 H       1  UNL1        0.0618
     51 H           6.7246   -4.4842   -2.7061 H       1  UNL1        0.0621
@<TRIPOS>BOND
     1     1    30    1
     2     1    31    1
     3     1    32    1
     4     2     1    1
     5     3     2    1
     6     4     3   ar
     7     4    33    1
     8     5     4   ar
     9     6     5    1
    10     6    34    1
    11     7     6    2
    12     8     7    1
    13     8    35    1
    14     9     8   am
    15    10     9    2
    16    11     9    1
    17    12    11   ar
    18    13    12    1
    19    13    36    1
    20    14    12   ar
    21    15    14    1
    22    15    37    1
    23    15    38    1
    24    15    39    1
    25    16    14   ar
    26    16    40    1
    27    17    16   ar
    28    17    41    1
    29    18    17   ar
    30    18    11   ar
    31    18    42    1
    32    19     5   ar
    33    19    43    1
    34    20    19   ar
    35    20    44    1
    36    21    20   ar
    37    21     3   ar
    38    22    21    1
    39    23    22    1
    40    23    45    1
    41    23    46    1
    42    24    23    1
    43    25    24   ar
    44    25    47    1
    45    26    25   ar
    46    26    48    1
    47    27    26   ar
    48    27    49    1
    49    28    27   ar
    50    28    50    1
    51    29    28   ar
    52    29    24   ar
    53    29    51    1
@<TRIPOS>MOLECULE
mol_577_akc_s00436_010_1826_x
>559.sdf
 23 24 0 0 0
SMALL
GASTEIGER

@<TRIPOS>ATOM
      1 O           1.2558   -0.2175   -0.2164 O.co2   1  UNL1       -0.5735
      2 N           2.2540   -0.1410    0.5129 N.pl3   1  UNL1        0.1186
      3 O           2.6570    0.8785    1.0862 O.2     1  UNL1        0.0446
      4 C           2.9970   -1.3482    0.6932 C.ar    1  UNL1        0.4380
      5 C           2.8215   -2.6134    0.1864 C.ar    1  UNL1        0.0595
      6 C           3.8806   -3.3837    0.7301 C.ar    1  UNL1       -0.0078
      7 C           4.6278   -2.5360    1.5313 C.ar    1  UNL1        0.1545
      8 O           4.0852   -1.2785    1.5060 O.2     1  UNL1       -0.3992
      9 C           5.8027   -2.7523    2.3321 C.2     1  UNL1        0.0884
     10 N           6.3363   -3.9318    2.3842 N.2     1  UNL1       -0.1791
     11 N           7.4330   -4.1213    3.1829 N.am    1  UNL1       -0.1552
     12 C           8.0822   -5.3920    3.1939 C.3     1  UNL1        0.0753
     13 C           9.2448   -5.1383    4.1162 C.3     1  UNL1        0.1118
     14 O           8.8119   -4.0729    4.9690 O.3     1  UNL1       -0.4475
     15 C           7.7749   -3.4263    4.3415 C.2     1  UNL1        0.4227
     16 O           7.2601   -2.4160    4.7943 O.2     1  UNL1       -0.2244
     17 H           2.0364   -2.9369   -0.4836 H       1  UNL1        0.0722
     18 H           4.0862   -4.4339    0.5670 H       1  UNL1        0.0658
     19 H           6.2017   -1.8671    2.8528 H       1  UNL1        0.0883
     20 H           7.3913   -6.1273    3.6210 H       1  UNL1        0.0520
     21 H           8.3857   -5.7043    2.1913 H       1  UNL1        0.0520
     22 H           9.5015   -6.0183    4.7125 H       1  UNL1        0.0714
     23 H          10.1362   -4.8023    3.5754 H       1  UNL1        0.0714
@<TRIPOS>UNITY_ATOM_ATTR
1 1
charge -1
2 1
charge 1
@<TRIPOS>BOND
     1     2     1    1
     2     3     2    2
     3     4     2    1
     4     5     4   ar
     5     5    17    1
     6     6     5   ar
     7     6    18    1
     8     7     6   ar
     9     8     7   ar
    10     8     4   ar
    11     9     7    1
    12     9    19    1
    13    10     9    2
    14    11    10    1
    15    12    11    1
    16    12    20    1
    17    12    21    1
    18    13    12    1
    19    13    22    1
    20    13    23    1
    21    14    13    1
    22    15    14    1
    23    15    11   am
    24    16    15    2
@<TRIPOS>MOLECULE
mol_579_akc_jejmech200910022
>561.sdf
 43 45 0 0 0
SMALL
GASTEIGER

@<TRIPOS>ATOM
      1 C           3.0192   -4.0620    1.5552 C.3     1  UNL1        0.0790
      2 O           2.3103   -3.4700    0.4760 O.3     1  UNL1       -0.4915
      3 C           3.0274   -3.1365   -0.6440 C.ar    1  UNL1        0.1615
      4 C           4.3257   -2.6012   -0.6950 C.ar    1  UNL1        0.1621
      5 O           5.0206   -2.4284    0.4707 O.3     1  UNL1       -0.4914
      6 C           6.0213   -1.4131    0.4875 C.3     1  UNL1        0.0790
      7 C           4.8728   -2.2893   -1.9468 C.ar    1  UNL1       -0.0086
      8 C           4.1440   -2.4645   -3.1308 C.ar    1  UNL1       -0.0133
      9 C           2.8293   -2.9273   -3.0618 C.ar    1  UNL1       -0.0503
     10 C           2.2871   -3.2747   -1.8256 C.ar    1  UNL1       -0.0157
     11 C           4.7890   -2.1675   -4.4258 C.ar    1  UNL1       -0.0002
     12 C           5.2027   -0.8994   -4.5990 C.ar    1  UNL1        0.0313
     13 C           5.9493   -0.4689   -5.7621 C.ar    1  UNL1        0.3378
     14 O           6.4456    0.6596   -5.8036 O.2     1  UNL1       -0.2452
     15 O           6.1532   -1.3580   -6.7924 O.2     1  UNL1       -0.4220
     16 C           5.3368   -2.4872   -6.7917 C.ar    1  UNL1        0.1433
     17 C           4.9274   -2.9351   -8.0369 C.ar    1  UNL1        0.0267
     18 C           3.9471   -3.9209   -8.1128 C.ar    1  UNL1        0.1650
     19 O           3.2446   -4.1461   -9.2679 O.3     1  UNL1       -0.4913
     20 C           3.1635   -3.0324  -10.1606 C.3     1  UNL1        0.0790
     21 C           3.6267   -4.6540   -6.9583 C.ar    1  UNL1        0.1623
     22 O           2.7632   -5.7147   -6.8669 O.3     1  UNL1       -0.4914
     23 C           2.6416   -6.5165   -8.0351 C.3     1  UNL1        0.0790
     24 C           4.0997   -4.2187   -5.7130 C.ar    1  UNL1       -0.0051
     25 C           4.8209   -3.0273   -5.6216 C.ar    1  UNL1        0.0290
     26 H           3.5782   -4.9468    1.2342 H       1  UNL1        0.0660
     27 H           3.6589   -3.3441    2.0717 H       1  UNL1        0.0660
     28 H           2.2731   -4.3870    2.2875 H       1  UNL1        0.0660
     29 H           6.8592   -1.6547   -0.1731 H       1  UNL1        0.0660
     30 H           5.5942   -0.4349    0.2425 H       1  UNL1        0.0660
     31 H           6.4241   -1.3608    1.5035 H       1  UNL1        0.0660
     32 H           5.8906   -1.9188   -2.0254 H       1  UNL1        0.0661
     33 H           2.2231   -3.0417   -3.9530 H       1  UNL1        0.0625
     34 H           1.2707   -3.6594   -1.7815 H       1  UNL1        0.0655
     35 H           5.0289   -0.1177   -3.8709 H       1  UNL1        0.0695
     36 H           5.2856   -2.4037   -8.9091 H       1  UNL1        0.0692
     37 H           2.9126   -2.0966   -9.6435 H       1  UNL1        0.0660
     38 H           4.1026   -2.9311  -10.7130 H       1  UNL1        0.0660
     39 H           2.3686   -3.2305  -10.8844 H       1  UNL1        0.0660
     40 H           1.9168   -6.0776   -8.7268 H       1  UNL1        0.0660
     41 H           3.6101   -6.6855   -8.5186 H       1  UNL1        0.0660
     42 H           2.2496   -7.4905   -7.7301 H       1  UNL1        0.0660
     43 H           3.7758   -4.7515   -4.8215 H       1  UNL1        0.0662
@<TRIPOS>BOND
     1     1    26    1
     2     1    27    1
     3     1    28    1
     4     2     1    1
     5     3     2    1
     6     4     3   ar
     7     5     4    1
     8     6     5    1
     9     6    29    1
    10     6    30    1
    11     6    31    1
    12     7     4   ar
    13     7    32    1
    14     8     7   ar
    15     9     8   ar
    16     9    33    1
    17    10     9   ar
    18    10     3   ar
    19    10    34    1
    20    11     8    1
    21    12    11   ar
    22    12    35    1
    23    13    12   ar
    24    14    13    2
    25    15    13   ar
    26    16    15   ar
    27    17    16   ar
    28    17    36    1
    29    18    17   ar
    30    19    18    1
    31    20    19    1
    32    20    37    1
    33    20    38    1
    34    20    39    1
    35    21    18   ar
    36    22    21    1
    37    23    22    1
    38    23    40    1
    39    23    41    1
    40    23    42    1
    41    24    21   ar
    42    24    43    1
    43    25    24   ar
    44    25    11   ar
    45    25    16   ar
@<TRIPOS>MOLECULE
mol_57_akc_s0925_44390200088_1
>57.sdf
 41 43 0 0 0
SMALL
GASTEIGER

@<TRIPOS>ATOM
      1 C           3.1726   -0.7737    1.3880 C.3     1  UNL1       -0.0494
      2 C           2.7337   -0.1302    0.0759 C.3     1  UNL1        0.0097
      3 N           3.1326    1.2836   -0.0117 N.pl3   1  UNL1       -0.3258
      4 C           2.0565    2.2856   -0.0345 C.3     1  UNL1        0.0372
      5 C           1.4585    2.5787    1.3304 C.ar    1  UNL1       -0.0301
      6 C           2.1663    2.4031    2.5299 C.ar    1  UNL1       -0.0557
      7 C           1.5496    2.6109    3.7660 C.ar    1  UNL1       -0.0431
      8 C           0.2222    3.0239    3.8136 C.ar    1  UNL1        0.0410
      9 CL         -0.5644    3.2020    5.3327 Cl      1  UNL1       -0.0835
     10 C          -0.4768    3.2770    2.6368 C.ar    1  UNL1       -0.0431
     11 C           0.1421    3.0655    1.4016 C.ar    1  UNL1       -0.0557
     12 C           4.4682    1.6549   -0.0871 C.ar    1  UNL1        0.0308
     13 C           5.4696    0.7660   -0.5008 C.ar    1  UNL1       -0.0386
     14 C           6.8286    1.1115   -0.4641 C.ar    1  UNL1       -0.0338
     15 C           7.2519    2.3427   -0.0051 C.ar    1  UNL1        0.0780
     16 N           8.5632    2.5953    0.0781 N.ar    1  UNL1       -0.2146
     17 C           8.9234    3.7815    0.5653 C.ar    1  UNL1        0.2148
     18 N          10.2765    4.0285    0.6830 N.pl3   1  UNL1       -0.3274
     19 N           8.0899    4.7571    0.9252 N.ar    1  UNL1       -0.1995
     20 C           6.7813    4.4859    0.8373 C.ar    1  UNL1        0.1291
     21 N           5.9318    5.5255    1.2428 N.pl3   1  UNL1       -0.3425
     22 C           6.2843    3.2675    0.3727 C.ar    1  UNL1        0.0418
     23 C           4.9075    2.9270    0.2956 C.ar    1  UNL1       -0.0282
     24 H           3.0943   -1.8629    1.3195 H       1  UNL1        0.0245
     25 H           4.2049   -0.5294    1.6586 H       1  UNL1        0.0245
     26 H           2.5325   -0.4497    2.2144 H       1  UNL1        0.0245
     27 H           3.1288   -0.6925   -0.7776 H       1  UNL1        0.0461
     28 H           1.6435   -0.2274    0.0027 H       1  UNL1        0.0461
     29 H           2.3727    3.2244   -0.5069 H       1  UNL1        0.0513
     30 H           1.2566    1.9004   -0.6827 H       1  UNL1        0.0513
     31 H           3.1997    2.0627    2.5174 H       1  UNL1        0.0621
     32 H           2.1053    2.4270    4.6817 H       1  UNL1        0.0632
     33 H          -1.5069    3.6214    2.6719 H       1  UNL1        0.0632
     34 H          -0.4199    3.2628    0.4909 H       1  UNL1        0.0621
     35 H           5.2250   -0.2293   -0.8563 H       1  UNL1        0.0637
     36 H           7.5686    0.3804   -0.7802 H       1  UNL1        0.0639
     37 H          10.7848    3.4337    0.0444 H       1  UNL1        0.1452
     38 H          10.4494    5.0205    0.6392 H       1  UNL1        0.1452
     39 H           5.2836    5.2111    1.9561 H       1  UNL1        0.1437
     40 H           6.5248    6.2759    1.5833 H       1  UNL1        0.1437
     41 H           4.1900    3.6775    0.6116 H       1  UNL1        0.0644
@<TRIPOS>BOND
     1     1    24    1
     2     1    25    1
     3     1    26    1
     4     2     1    1
     5     2    27    1
     6     2    28    1
     7     3     2    1
     8     4     3    1
     9     4    29    1
    10     4    30    1
    11     5     4    1
    12     6     5   ar
    13     6    31    1
    14     7     6   ar
    15     7    32    1
    16     8     7   ar
    17     9     8    1
    18    10     8   ar
    19    10    33    1
    20    11    10   ar
    21    11     5   ar
    22    11    34    1
    23    12     3    1
    24    13    12   ar
    25    13    35    1
    26    14    13   ar
    27    14    36    1
    28    15    14   ar
    29    16    15   ar
    30    17    16   ar
    31    18    17    1
    32    18    37    1
    33    18    38    1
    34    19    17   ar
    35    20    19   ar
    36    21    20    1
    37    21    39    1
    38    21    40    1
    39    22    20   ar
    40    22    15   ar
    41    23    22   ar
    42    23    12   ar
    43    23    41    1
@<TRIPOS>MOLECULE
mol_580_akc_jejmech200911035
>562.sdf
 47 48 0 0 0
SMALL
GASTEIGER

@<TRIPOS>ATOM
      1 C           2.8155   10.9694    4.3976 C.3     1  UNL1        0.0790
      2 O           4.0223   10.2485    4.6233 O.3     1  UNL1       -0.4914
      3 C           4.2151    9.1245    3.8603 C.ar    1  UNL1        0.1618
      4 C           3.3473    8.6365    2.8800 C.ar    1  UNL1       -0.0092
      5 C           3.6565    7.4629    2.1695 C.ar    1  UNL1       -0.0212
      6 C           2.7868    6.9386    1.1037 C.2     1  UNL1       -0.0512
      7 C           1.4500    7.0552    1.0849 C.2     1  UNL1       -0.0182
      8 C           0.6643    6.5020   -0.0569 C.2     1  UNL1        0.1635
      9 O           1.2157    5.9406   -1.0023 O.2     1  UNL1       -0.2922
     10 C          -0.8332    6.6365   -0.0042 C.3     1  UNL1        0.0724
     11 C          -1.2951    8.0680    0.0016 C.2     1  UNL1        0.1635
     12 O          -1.3852    8.7037    1.0512 O.2     1  UNL1       -0.2922
     13 C          -1.5954    8.6943   -1.3178 C.2     1  UNL1       -0.0182
     14 C          -2.0560    9.9532   -1.3764 C.2     1  UNL1       -0.0512
     15 C          -2.3797   10.6625   -2.6232 C.ar    1  UNL1       -0.0212
     16 C          -3.3766   11.6431   -2.6031 C.ar    1  UNL1       -0.0509
     17 C          -3.6902   12.3620   -3.7597 C.ar    1  UNL1       -0.0160
     18 C          -3.0028   12.1160   -4.9524 C.ar    1  UNL1        0.1585
     19 O          -3.3440   12.8450   -6.0572 O.3     1  UNL1       -0.5033
     20 C          -1.9923   11.1510   -4.9940 C.ar    1  UNL1        0.1618
     21 O          -1.2115   10.7767   -6.0542 O.3     1  UNL1       -0.4914
     22 C          -1.4167   11.4198   -7.3029 C.3     1  UNL1        0.0790
     23 C          -1.6887   10.4393   -3.8223 C.ar    1  UNL1       -0.0092
     24 C           4.8658    6.8030    2.4362 C.ar    1  UNL1       -0.0509
     25 C           5.7398    7.2857    3.4111 C.ar    1  UNL1       -0.0160
     26 C           5.4056    8.4354    4.1122 C.ar    1  UNL1        0.1585
     27 O           6.2794    8.8912    5.0615 O.3     1  UNL1       -0.5033
     28 H           2.7820   11.3695    3.3789 H       1  UNL1        0.0660
     29 H           1.9385   10.3485    4.6092 H       1  UNL1        0.0660
     30 H           2.7973   11.8168    5.0894 H       1  UNL1        0.0660
     31 H           2.4309    9.1662    2.6446 H       1  UNL1        0.0661
     32 H           3.2975    6.4164    0.2953 H       1  UNL1        0.0625
     33 H           0.8918    7.5415    1.8767 H       1  UNL1        0.0653
     34 H          -1.2702    6.1115   -0.8616 H       1  UNL1        0.0426
     35 H          -1.2154    6.1284    0.8881 H       1  UNL1        0.0426
     36 H          -1.4311    8.0882   -2.2012 H       1  UNL1        0.0653
     37 H          -2.2274   10.5130   -0.4574 H       1  UNL1        0.0625
     38 H          -3.9247   11.8551   -1.6875 H       1  UNL1        0.0625
     39 H          -4.4742   13.1125   -3.7091 H       1  UNL1        0.0655
     40 H          -4.0559   13.4635   -5.8263 H       1  UNL1        0.2923
     41 H          -2.4248   11.2345   -7.6864 H       1  UNL1        0.0660
     42 H          -1.1878   12.4883   -7.2416 H       1  UNL1        0.0660
     43 H          -0.7147   10.9797   -8.0184 H       1  UNL1        0.0660
     44 H          -0.8821    9.7112   -3.8653 H       1  UNL1        0.0661
     45 H           5.1383    5.9030    1.8885 H       1  UNL1        0.0625
     46 H           6.6739    6.7725    3.6192 H       1  UNL1        0.0655
     47 H           5.8637    9.7001    5.4185 H       1  UNL1        0.2923
@<TRIPOS>BOND
     1     1    28    1
     2     1    29    1
     3     1    30    1
     4     2     1    1
     5     3     2    1
     6     4     3   ar
     7     4    31    1
     8     5     4   ar
     9     6     5    1
    10     6    32    1
    11     7     6    2
    12     7    33    1
    13     8     7    1
    14     9     8    2
    15    10     8    1
    16    10    34    1
    17    10    35    1
    18    11    10    1
    19    12    11    2
    20    13    11    1
    21    13    36    1
    22    14    13    2
    23    14    37    1
    24    15    14    1
    25    16    15   ar
    26    16    38    1
    27    17    16   ar
    28    17    39    1
    29    18    17   ar
    30    19    18    1
    31    19    40    1
    32    20    18   ar
    33    21    20    1
    34    22    21    1
    35    22    41    1
    36    22    42    1
    37    22    43    1
    38    23    20   ar
    39    23    15   ar
    40    23    44    1
    41    24     5   ar
    42    24    45    1
    43    25    24   ar
    44    25    46    1
    45    26    25   ar
    46    26     3   ar
    47    27    26    1
    48    27    47    1
@<TRIPOS>MOLECULE
mol_582_akc_s00436_010_1973_0
>564.sdf
 47 48 0 0 0
SMALL
GASTEIGER

@<TRIPOS>ATOM
      1 C           7.1083    4.1480    0.3813 C.3     1  UNL1       -0.0646
      2 C           7.8042    2.9895   -0.3222 C.3     1  UNL1       -0.0450
      3 C           6.8743    1.8179   -0.6939 C.3     1  UNL1        0.0325
      4 C           5.7728    2.2507   -1.6620 C.3     1  UNL1       -0.0541
      5 C           6.2822    1.1246    0.5364 C.2     1  UNL1        0.2164
      6 O           5.0752    1.0417    0.7507 O.2     1  UNL1       -0.2755
      7 N           7.2200    0.5476    1.3624 N.am    1  UNL1       -0.3037
      8 C           6.8639    0.0039    2.6705 C.3     1  UNL1        0.1004
      9 C           7.3307   -1.4335    2.7682 C.3     1  UNL1       -0.0177
     10 C           6.9911   -1.9535    4.1453 C.3     1  UNL1        0.0267
     11 C           7.6728   -1.1339    5.2213 C.2     1  UNL1        0.2219
     12 O           8.0822   -1.6916    6.2386 O.2     1  UNL1       -0.2752
     13 N           7.7675    0.2390    4.9962 N.am    1  UNL1       -0.2403
     14 C           8.3927    1.0627    6.0444 C.3     1  UNL1        0.0263
     15 C           7.4321    2.1149    6.6212 C.3     1  UNL1       -0.0113
     16 C           8.0475    2.9528    7.7158 C.ar    1  UNL1       -0.0459
     17 C           8.7434    4.1308    7.4103 C.ar    1  UNL1       -0.0585
     18 C           9.2534    4.9375    8.4282 C.ar    1  UNL1       -0.0615
     19 C           9.0827    4.5717    9.7638 C.ar    1  UNL1       -0.0617
     20 C           8.4174    3.3882   10.0782 C.ar    1  UNL1       -0.0615
     21 C           7.9060    2.5799    9.0600 C.ar    1  UNL1       -0.0585
     22 C           7.5270    0.8614    3.7651 C.2     1  UNL1        0.2421
     23 O           7.8232    2.0407    3.5514 O.2     1  UNL1       -0.2731
     24 H           7.8505    4.8779    0.7204 H       1  UNL1        0.0230
     25 H           6.4217    4.6677   -0.2931 H       1  UNL1        0.0230
     26 H           6.5468    3.8094    1.2572 H       1  UNL1        0.0230
     27 H           8.2825    3.3704   -1.2328 H       1  UNL1        0.0270
     28 H           8.6191    2.6381    0.3204 H       1  UNL1        0.0270
     29 H           7.4803    1.0609   -1.2103 H       1  UNL1        0.0391
     30 H           5.1658    1.3903   -1.9649 H       1  UNL1        0.0237
     31 H           5.0935    2.9796   -1.2089 H       1  UNL1        0.0237
     32 H           6.2008    2.6941   -2.5667 H       1  UNL1        0.0237
     33 H           8.1868    0.8191    1.2349 H       1  UNL1        0.1495
     34 H           5.7802    0.0671    2.8212 H       1  UNL1        0.0595
     35 H           8.4131   -1.5007    2.5949 H       1  UNL1        0.0292
     36 H           6.8429   -2.0483    2.0026 H       1  UNL1        0.0292
     37 H           7.3299   -2.9928    4.2316 H       1  UNL1        0.0359
     38 H           5.9129   -1.9335    4.3305 H       1  UNL1        0.0359
     39 H           8.7651    0.4305    6.8580 H       1  UNL1        0.0473
     40 H           9.2710    1.5534    5.6062 H       1  UNL1        0.0473
     41 H           7.0728    2.7874    5.8322 H       1  UNL1        0.0329
     42 H           6.5316    1.6186    7.0049 H       1  UNL1        0.0329
     43 H           8.8750    4.4400    6.3738 H       1  UNL1        0.0620
     44 H           9.7742    5.8605    8.1843 H       1  UNL1        0.0618
     45 H           9.4631    5.2091   10.5567 H       1  UNL1        0.0618
     46 H           8.2848    3.1000   11.1182 H       1  UNL1        0.0618
     47 H           7.3808    1.6661    9.3253 H       1  UNL1        0.0620
@<TRIPOS>BOND
     1     1    24    1
     2     1    25    1
     3     1    26    1
     4     2     1    1
     5     2    27    1
     6     2    28    1
     7     4     3    1
     8     4    30    1
     9     4    31    1
    10     4    32    1
    11     5     3    1
    12     6     5    2
    13     7     5   am
    14     7    33    1
    15     9     8    1
    16     9    35    1
    17     9    36    1
    18    10     9    1
    19    10    37    1
    20    10    38    1
    21    11    10    1
    22    12    11    2
    23    13    11   am
    24    14    13    1
    25    14    39    1
    26    14    40    1
    27    15    14    1
    28    15    41    1
    29    15    42    1
    30    16    15    1
    31    17    16   ar
    32    17    43    1
    33    18    17   ar
    34    18    44    1
    35    19    18   ar
    36    19    45    1
    37    20    19   ar
    38    20    46    1
    39    21    20   ar
    40    21    16   ar
    41    21    47    1
    42    22    13   am
    43    22     8    1
    44    23    22    2
    45     3    29    1
    46     3     2    1
    47     8    34    1
    48     8     7    1
@<TRIPOS>MOLECULE
mol_583_akc_jejmech201004004
>565.sdf
 51 55 0 0 0
SMALL
GASTEIGER

@<TRIPOS>ATOM
      1 C           6.9903   -8.0970    3.2122 C.3     1  UNL1        0.0790
      2 O           5.9424   -7.2218    2.7949 O.3     1  UNL1       -0.4915
      3 C           6.0118   -6.8103    1.4889 C.ar    1  UNL1        0.1615
      4 C           7.1788   -6.4509    0.7992 C.ar    1  UNL1        0.1618
      5 O           8.3686   -6.4876    1.4720 O.3     1  UNL1       -0.4914
      6 C           9.3881   -5.6097    1.0089 C.3     1  UNL1        0.0790
      7 C           7.0842   -6.1247   -0.5621 C.ar    1  UNL1       -0.0110
      8 C           5.8485   -6.1366   -1.2467 C.ar    1  UNL1       -0.0175
      9 C           4.6855   -6.3904   -0.5079 C.ar    1  UNL1       -0.0527
     10 C           4.7721   -6.7227    0.8463 C.ar    1  UNL1       -0.0160
     11 C           5.8775   -5.9938   -2.7773 C.3     1  UNL1        0.0919
     12 N           6.7464   -7.0889   -3.3258 N.pl3   1  UNL1       -0.2868
     13 C           6.1827   -8.4515   -3.0536 C.3     1  UNL1        0.0199
     14 C           4.6907   -8.6330   -3.4823 C.3     1  UNL1       -0.0095
     15 C           4.0508   -7.3451   -3.9146 C.ar    1  UNL1       -0.0155
     16 C           4.5403   -6.1248   -3.4784 C.ar    1  UNL1        0.0455
     17 N           3.9167   -5.1294   -4.1824 N.ar    1  UNL1       -0.3560
     18 C           3.2188   -5.6979   -5.2330 C.ar    1  UNL1        0.0470
     19 C           2.6477   -5.0979   -6.3632 C.ar    1  UNL1       -0.0378
     20 C           2.0989   -5.9388   -7.3382 C.ar    1  UNL1       -0.0598
     21 C           2.0882   -7.3208   -7.1732 C.ar    1  UNL1       -0.0611
     22 C           2.6445   -7.9064   -6.0291 C.ar    1  UNL1       -0.0523
     23 C           3.2349   -7.0835   -5.0498 C.ar    1  UNL1        0.0032
     24 C           7.0028   -6.8990   -4.7043 C.ar    1  UNL1        0.2213
     25 N           7.0448   -5.6508   -5.1923 N.ar    1  UNL1       -0.2026
     26 C           6.9960   -5.5155   -6.5267 C.ar    1  UNL1        0.1357
     27 CL          6.8986   -3.8868   -7.0620 Cl      1  UNL1       -0.0618
     28 C           6.9676   -6.5409   -7.4217 C.ar    1  UNL1        0.0122
     29 C           7.0322   -7.7621   -6.8257 C.ar    1  UNL1        0.1357
     30 CL          7.0099   -9.1987   -7.7640 Cl      1  UNL1       -0.0618
     31 N           7.0727   -7.9725   -5.5030 N.ar    1  UNL1       -0.2026
     32 H           7.3361   -8.7589    2.4103 H       1  UNL1        0.0660
     33 H           7.8181   -7.5203    3.6346 H       1  UNL1        0.0660
     34 H           6.5949   -8.7324    4.0111 H       1  UNL1        0.0660
     35 H           9.8231   -5.9689    0.0713 H       1  UNL1        0.0660
     36 H           9.0154   -4.5856    0.9073 H       1  UNL1        0.0660
     37 H          10.1855   -5.6044    1.7584 H       1  UNL1        0.0660
     38 H           7.9823   -5.9349   -1.1453 H       1  UNL1        0.0659
     39 H           3.7060   -6.3920   -0.9806 H       1  UNL1        0.0622
     40 H           3.8668   -6.9649    1.3998 H       1  UNL1        0.0655
     41 H           6.3096   -5.0037   -2.9759 H       1  UNL1        0.0616
     42 H           6.2493   -8.6421   -1.9725 H       1  UNL1        0.0468
     43 H           6.8038   -9.2439   -3.4823 H       1  UNL1        0.0468
     44 H           4.1229   -9.0516   -2.6429 H       1  UNL1        0.0329
     45 H           4.6436   -9.3697   -4.2930 H       1  UNL1        0.0329
     46 H           4.1512   -4.1473   -4.1346 H       1  UNL1        0.1657
     47 H           2.6745   -4.0226   -6.5114 H       1  UNL1        0.0638
     48 H           1.6872   -5.5064   -8.2477 H       1  UNL1        0.0618
     49 H           1.6728   -7.9584   -7.9498 H       1  UNL1        0.0618
     50 H           2.6735   -8.9864   -5.9314 H       1  UNL1        0.0624
     51 H           6.8962   -6.4024   -8.4881 H       1  UNL1        0.0678
@<TRIPOS>BOND
     1     1    32    1
     2     1    33    1
     3     1    34    1
     4     2     1    1
     5     3     2    1
     6     4     3   ar
     7     5     4    1
     8     6     5    1
     9     6    35    1
    10     6    36    1
    11     6    37    1
    12     7     4   ar
    13     7    38    1
    14     8     7   ar
    15     9     8   ar
    16     9    39    1
    17    10     9   ar
    18    10     3   ar
    19    10    40    1
    20    12    11    1
    21    13    12    1
    22    13    42    1
    23    13    43    1
    24    14    13    1
    25    14    44    1
    26    14    45    1
    27    15    14    1
    28    16    15   ar
    29    16    11    1
    30    17    16   ar
    31    17    46    1
    32    18    17   ar
    33    19    18   ar
    34    19    47    1
    35    20    19   ar
    36    20    48    1
    37    21    20   ar
    38    21    49    1
    39    22    21   ar
    40    22    50    1
    41    23    22   ar
    42    23    15   ar
    43    23    18   ar
    44    24    12    1
    45    25    24   ar
    46    26    25   ar
    47    27    26    1
    48    28    26   ar
    49    28    51    1
    50    29    28   ar
    51    30    29    1
    52    31    29   ar
    53    31    24   ar
    54    11    41    1
    55    11     8    1
@<TRIPOS>MOLECULE
mol_584_akc_jbmcl200910117
>566.sdf
 42 44 0 0 0
SMALL
GASTEIGER

@<TRIPOS>ATOM
      1 O           0.6215    1.4299   -0.5023 O.co2   1  UNL1       -0.5760
      2 N           1.8155    1.6122   -0.7806 N.pl3   1  UNL1        0.0796
      3 O           2.3411    1.3035   -1.8594 O.2     1  UNL1        0.0414
      4 C           2.6692    2.2229    0.2460 C.ar    1  UNL1        0.2734
      5 C           2.1216    2.5729    1.4857 C.ar    1  UNL1        0.0190
      6 C           2.9428    3.1174    2.4808 C.ar    1  UNL1       -0.0135
      7 C           4.3056    3.3113    2.2439 C.ar    1  UNL1        0.1216
      8 O           5.2240    3.7913    3.1357 O.3     1  UNL1       -0.4837
      9 C           4.8059    4.0885    4.4779 C.3     1  UNL1        0.1516
     10 C           4.8302    2.7957    5.3129 C.3     1  UNL1        0.1280
     11 O           4.3641    3.0767    6.6312 O.3     1  UNL1       -0.4882
     12 C           4.3387    2.0350    7.5179 C.ar    1  UNL1        0.1207
     13 C           4.7108    0.7156    7.2522 C.ar    1  UNL1       -0.0199
     14 C           4.6330   -0.2522    8.2599 C.ar    1  UNL1       -0.0583
     15 C           4.1843    0.0925    9.5336 C.ar    1  UNL1       -0.0615
     16 C           3.8111    1.4070    9.8029 C.ar    1  UNL1       -0.0583
     17 C           3.8887    2.3717    8.7973 C.ar    1  UNL1       -0.0199
     18 C           5.7951    5.1024    5.0773 C.3     1  UNL1        0.0644
     19 N           5.8088    6.3644    4.3584 N.ar    1  UNL1       -0.3332
     20 C           4.9623    7.4194    4.5471 C.ar    1  UNL1        0.0241
     21 C           5.3949    8.3803    3.6616 C.ar    1  UNL1        0.0454
     22 N           6.4825    7.9370    2.9543 N.ar    1  UNL1       -0.2441
     23 C           6.7106    6.7210    3.3969 C.ar    1  UNL1        0.0960
     24 C           4.8356    2.9818    0.9907 C.ar    1  UNL1       -0.0135
     25 C           4.0271    2.4355   -0.0110 C.ar    1  UNL1        0.0190
     26 H           1.0643    2.4239    1.6977 H       1  UNL1        0.0686
     27 H           2.4763    3.3673    3.4281 H       1  UNL1        0.0656
     28 H           3.8153    4.5582    4.5019 H       1  UNL1        0.0786
     29 H           4.1893    2.0397    4.8444 H       1  UNL1        0.0734
     30 H           5.8552    2.4027    5.3409 H       1  UNL1        0.0734
     31 H           5.0640    0.4015    6.2762 H       1  UNL1        0.0654
     32 H           4.9235   -1.2788    8.0493 H       1  UNL1        0.0619
     33 H           4.1246   -0.6618   10.3138 H       1  UNL1        0.0618
     34 H           3.4594    1.6815   10.7938 H       1  UNL1        0.0619
     35 H           3.5947    3.3956    9.0149 H       1  UNL1        0.0654
     36 H           5.5441    5.3371    6.1189 H       1  UNL1        0.0530
     37 H           6.8189    4.7122    5.0553 H       1  UNL1        0.0530
     38 H           4.1535    7.4085    5.2636 H       1  UNL1        0.0825
     39 H           4.9852    9.3685    3.4976 H       1  UNL1        0.0845
     40 H           7.5036    6.0664    3.0596 H       1  UNL1        0.1029
     41 H           5.8936    3.1454    0.7929 H       1  UNL1        0.0656
     42 H           4.4706    2.1798   -0.9711 H       1  UNL1        0.0686
@<TRIPOS>UNITY_ATOM_ATTR
1 1
charge -1
2 1
charge 1
@<TRIPOS>BOND
     1     2     1    1
     2     3     2    2
     3     4     2    1
     4     5     4   ar
     5     5    26    1
     6     6     5   ar
     7     6    27    1
     8     7     6   ar
     9     8     7    1
    10     9     8    1
    11     9    28    1
    12    10     9    1
    13    10    29    1
    14    10    30    1
    15    11    10    1
    16    12    11    1
    17    13    12   ar
    18    13    31    1
    19    14    13   ar
    20    14    32    1
    21    15    14   ar
    22    15    33    1
    23    16    15   ar
    24    16    34    1
    25    17    16   ar
    26    17    12   ar
    27    17    35    1
    28    18     9    1
    29    18    36    1
    30    18    37    1
    31    19    18    1
    32    20    19   ar
    33    20    38    1
    34    21    20   ar
    35    21    39    1
    36    22    21   ar
    37    23    22   ar
    38    23    19   ar
    39    23    40    1
    40    24     7   ar
    41    24    41    1
    42    25    24   ar
    43    25     4   ar
    44    25    42    1
