@<TRIPOS>MOLECULE
mol_291_akc_jphytol201108001
>282.sdf
 41 42 0 0 0
SMALL
GASTEIGER

@<TRIPOS>ATOM
      1 C           0.8861   -0.0757    0.1060 C.3     1  UNL1        0.0790
      2 O           2.3067   -0.1141    0.0768 O.3     1  UNL1       -0.4912
      3 C           3.0101    1.0612    0.0560 C.ar    1  UNL1        0.1687
      4 C           2.3807    2.3159    0.0951 C.ar    1  UNL1        0.0264
      5 C           3.1069    3.5189    0.0637 C.ar    1  UNL1        0.1381
      6 O           2.5072    4.7467    0.1749 O.3     1  UNL1       -0.4942
      7 C           1.0853    4.8105    0.2276 C.3     1  UNL1        0.0788
      8 C           4.5081    3.4766   -0.0373 C.ar    1  UNL1        0.1084
      9 C           5.3739    4.6977   -0.1124 C.2     1  UNL1        0.1932
     10 O           6.5294    4.6281    0.3084 O.2     1  UNL1       -0.2870
     11 C           4.8726    5.9415   -0.7594 C.2     1  UNL1       -0.0135
     12 C           5.6133    7.0596   -0.7578 C.2     1  UNL1       -0.0510
     13 C           5.0956    8.3035   -1.3278 C.ar    1  UNL1       -0.0249
     14 C           4.4334    9.2207   -0.5024 C.ar    1  UNL1       -0.0546
     15 C           3.9056   10.3981   -1.0371 C.ar    1  UNL1       -0.0612
     16 C           4.0353   10.6649   -2.3989 C.ar    1  UNL1       -0.0617
     17 C           4.6960    9.7559   -3.2263 C.ar    1  UNL1       -0.0612
     18 C           5.2238    8.5774   -2.6928 C.ar    1  UNL1       -0.0546
     19 C           5.1436    2.2145   -0.0372 C.ar    1  UNL1        0.1768
     20 O           6.5210    2.1068   -0.0827 O.3     1  UNL1       -0.5027
     21 C           4.4118    1.0049    0.0059 C.ar    1  UNL1        0.2043
     22 O           5.1997   -0.1210   -0.0027 O.3     1  UNL1       -0.4885
     23 C           4.6065   -1.4064    0.0716 C.3     1  UNL1        0.0791
     24 H           0.5240    0.3913    1.0276 H       1  UNL1        0.0660
     25 H           0.4851    0.4263   -0.7805 H       1  UNL1        0.0660
     26 H           0.5242   -1.1083    0.0938 H       1  UNL1        0.0660
     27 H           1.3015    2.3552    0.1642 H       1  UNL1        0.0692
     28 H           0.6315    4.3461   -0.6534 H       1  UNL1        0.0660
     29 H           0.7114    4.3615    1.1529 H       1  UNL1        0.0660
     30 H           0.7981    5.8657    0.2273 H       1  UNL1        0.0660
     31 H           3.8970    5.9333   -1.2293 H       1  UNL1        0.0656
     32 H           6.6023    7.1024   -0.3063 H       1  UNL1        0.0625
     33 H           4.3231    9.0216    0.5613 H       1  UNL1        0.0623
     34 H           3.3926   11.1059   -0.3904 H       1  UNL1        0.0618
     35 H           3.6238   11.5802   -2.8154 H       1  UNL1        0.0618
     36 H           4.7983    9.9655   -4.2882 H       1  UNL1        0.0618
     37 H           5.7360    7.8767   -3.3494 H       1  UNL1        0.0623
     38 H           6.9115    2.9866    0.1137 H       1  UNL1        0.2923
     39 H           4.0381   -1.5352    0.9984 H       1  UNL1        0.0660
     40 H           4.0021   -1.6145   -0.8168 H       1  UNL1        0.0660
     41 H           5.4148   -2.1443    0.0890 H       1  UNL1        0.0660
@<TRIPOS>BOND
     1     1    24    1
     2     1    25    1
     3     1    26    1
     4     2     1    1
     5     3     2    1
     6     4     3   ar
     7     4    27    1
     8     5     4   ar
     9     6     5    1
    10     7     6    1
    11     7    28    1
    12     7    29    1
    13     7    30    1
    14     8     5   ar
    15     9     8    1
    16    10     9    2
    17    11     9    1
    18    11    31    1
    19    12    11    2
    20    12    32    1
    21    13    12    1
    22    14    13   ar
    23    14    33    1
    24    15    14   ar
    25    15    34    1
    26    16    15   ar
    27    16    35    1
    28    17    16   ar
    29    17    36    1
    30    18    17   ar
    31    18    13   ar
    32    18    37    1
    33    19     8   ar
    34    20    19    1
    35    20    38    1
    36    21    19   ar
    37    21     3   ar
    38    22    21    1
    39    23    22    1
    40    23    39    1
    41    23    40    1
    42    23    41    1
@<TRIPOS>MOLECULE
mol_292_akc_slct201703095
>283.sdf
 40 43 0 0 0
SMALL
GASTEIGER

@<TRIPOS>ATOM
      1 S           1.0217   -0.5270   -0.8436 S.3     1  UNL1       -0.1227
      2 C           2.7101   -0.1451   -0.4116 C.ar    1  UNL1        0.1060
      3 N           3.4481   -1.2651   -0.2446 N.ar    1  UNL1       -0.2400
      4 C           4.7594   -1.1661   -0.0262 C.ar    1  UNL1        0.0729
      5 C           5.4765   -2.3535    0.0332 C.ar    1  UNL1       -0.0343
      6 C           6.8582   -2.3741    0.2178 C.ar    1  UNL1       -0.0413
      7 C           7.5311   -1.1771    0.3873 C.ar    1  UNL1        0.0417
      8 CL          9.2360   -1.1751    0.6073 Cl      1  UNL1       -0.0835
      9 C           6.8282    0.0271    0.3585 C.ar    1  UNL1       -0.0336
     10 C           5.4270    0.0689    0.1094 C.ar    1  UNL1        0.0102
     11 C           4.6468    1.2665   -0.0383 C.ar    1  UNL1        0.0047
     12 C           5.3061    2.6003    0.0241 C.ar    1  UNL1       -0.0165
     13 C           6.3305    2.9381   -0.8826 C.ar    1  UNL1       -0.0540
     14 C           7.0028    4.1601   -0.8002 C.ar    1  UNL1       -0.0612
     15 C           6.6361    5.0900    0.1660 C.ar    1  UNL1       -0.0617
     16 C           5.6001    4.7946    1.0510 C.ar    1  UNL1       -0.0612
     17 C           4.9502    3.5569    0.9885 C.ar    1  UNL1       -0.0540
     18 C           3.2556    1.1355   -0.2965 C.ar    1  UNL1        0.0621
     19 C           2.4392    2.3200   -0.6444 C.2     1  UNL1        0.1963
     20 O           2.7927    2.9837   -1.6208 O.2     1  UNL1       -0.2865
     21 C           1.1661    2.6690    0.0498 C.ar    1  UNL1        0.0224
     22 C           0.2479    3.4692   -0.6463 C.ar    1  UNL1       -0.0509
     23 C          -1.0106    3.7407   -0.1082 C.ar    1  UNL1       -0.0611
     24 C          -1.3573    3.2203    1.1366 C.ar    1  UNL1       -0.0617
     25 C          -0.4383    2.4520    1.8519 C.ar    1  UNL1       -0.0611
     26 C           0.8279    2.1821    1.3176 C.ar    1  UNL1       -0.0509
     27 H           0.8570    0.4566   -1.7384 H       1  UNL1        0.1086
     28 H           4.9443   -3.2950   -0.0935 H       1  UNL1        0.0639
     29 H           7.3898   -3.3216    0.2251 H       1  UNL1        0.0633
     30 H           7.3905    0.9453    0.5125 H       1  UNL1        0.0639
     31 H           6.6267    2.2362   -1.6604 H       1  UNL1        0.0624
     32 H           7.8105    4.3829   -1.4932 H       1  UNL1        0.0618
     33 H           7.1482    6.0469    0.2230 H       1  UNL1        0.0618
     34 H           5.3002    5.5303    1.7929 H       1  UNL1        0.0618
     35 H           4.1563    3.3542    1.7034 H       1  UNL1        0.0624
     36 H           0.4998    3.8664   -1.6293 H       1  UNL1        0.0625
     37 H          -1.7217    4.3432   -0.6673 H       1  UNL1        0.0618
     38 H          -2.3465    3.4114    1.5461 H       1  UNL1        0.0618
     39 H          -0.7179    2.0473    2.8215 H       1  UNL1        0.0618
     40 H           1.5143    1.5706    1.8957 H       1  UNL1        0.0625
@<TRIPOS>BOND
     1     1    27    1
     2     2     1    1
     3     3     2   ar
     4     4     3   ar
     5     5     4   ar
     6     5    28    1
     7     6     5   ar
     8     6    29    1
     9     7     6   ar
    10     8     7    1
    11     9     7   ar
    12     9    30    1
    13    10     9   ar
    14    10     4   ar
    15    11    10   ar
    16    12    11    1
    17    13    12   ar
    18    13    31    1
    19    14    13   ar
    20    14    32    1
    21    15    14   ar
    22    15    33    1
    23    16    15   ar
    24    16    34    1
    25    17    16   ar
    26    17    12   ar
    27    17    35    1
    28    18    11   ar
    29    18     2   ar
    30    19    18    1
    31    20    19    2
    32    21    19    1
    33    22    21   ar
    34    22    36    1
    35    23    22   ar
    36    23    37    1
    37    24    23   ar
    38    24    38    1
    39    25    24   ar
    40    25    39    1
    41    26    25   ar
    42    26    21   ar
    43    26    40    1
@<TRIPOS>MOLECULE
mol_293_akc_jejpb201308014
>284.sdf
 43 45 0 0 0
SMALL
GASTEIGER

@<TRIPOS>ATOM
      1 C           0.9123    0.0036    0.0076 C.3     1  UNL1       -0.0597
      2 C           2.4371   -0.1988   -0.0681 C.3     1  UNL1       -0.0123
      3 C           2.7348   -1.5965   -0.6406 C.3     1  UNL1        0.0585
      4 O           3.9758   -1.5670   -1.3320 O.3     1  UNL1       -0.3915
      5 C           2.7211   -2.7129    0.4116 C.3     1  UNL1       -0.0212
      6 C           3.3698   -2.3598    1.7722 C.3     1  UNL1       -0.0097
      7 C           2.7229   -1.0717    2.2854 C.3     1  UNL1       -0.0417
      8 C           3.0880    0.0626    1.3233 C.3     1  UNL1       -0.0053
      9 C           4.6382    0.2082    1.3201 C.3     1  UNL1        0.0875
     10 O           5.3200   -1.0217    1.0521 O.3     1  UNL1       -0.3656
     11 C           4.9150   -2.1949    1.7556 C.3     1  UNL1        0.0676
     12 C           5.4786   -2.1702    3.1915 C.3     1  UNL1       -0.0358
     13 C           5.6105   -3.3609    1.0316 C.3     1  UNL1       -0.0358
     14 C           5.1564    1.2959    0.3812 C.ar    1  UNL1       -0.0186
     15 C           4.7456    2.6307    0.5289 C.ar    1  UNL1       -0.0561
     16 C           5.2208    3.6305   -0.3273 C.ar    1  UNL1       -0.0614
     17 C           6.1219    3.3107   -1.3451 C.ar    1  UNL1       -0.0617
     18 C           6.5405    1.9960   -1.5049 C.ar    1  UNL1       -0.0614
     19 C           6.0632    0.9997   -0.6538 C.ar    1  UNL1       -0.0561
     20 H           0.6653    0.9704    0.4576 H       1  UNL1        0.0233
     21 H           0.4764   -0.0134   -0.9974 H       1  UNL1        0.0233
     22 H           0.4160   -0.7801    0.5884 H       1  UNL1        0.0233
     23 H           2.8095    0.5560   -0.7720 H       1  UNL1        0.0327
     24 H           1.9878   -1.8375   -1.4074 H       1  UNL1        0.0596
     25 H           4.0168   -2.3427   -1.9141 H       1  UNL1        0.2098
     26 H           1.6705   -2.9627    0.6147 H       1  UNL1        0.0294
     27 H           3.1690   -3.6253    0.0037 H       1  UNL1        0.0294
     28 H           3.1185   -3.1754    2.4635 H       1  UNL1        0.0329
     29 H           1.6382   -1.1932    2.3732 H       1  UNL1        0.0272
     30 H           3.0646   -0.8289    3.2978 H       1  UNL1        0.0272
     31 H           2.6636    0.9948    1.7193 H       1  UNL1        0.0333
     32 H           4.9524    0.5204    2.3255 H       1  UNL1        0.0649
     33 H           5.2353   -3.0976    3.7232 H       1  UNL1        0.0257
     34 H           6.5689   -2.0592    3.1819 H       1  UNL1        0.0257
     35 H           5.0995   -1.3326    3.7822 H       1  UNL1        0.0257
     36 H           5.4354   -3.3310   -0.0481 H       1  UNL1        0.0257
     37 H           6.6995   -3.2948    1.1465 H       1  UNL1        0.0257
     38 H           5.2837   -4.3320    1.4168 H       1  UNL1        0.0257
     39 H           4.0470    2.9104    1.3148 H       1  UNL1        0.0621
     40 H           4.8882    4.6567   -0.2063 H       1  UNL1        0.0618
     41 H           6.4926    4.0874   -2.0095 H       1  UNL1        0.0618
     42 H           7.2446    1.7368   -2.2953 H       1  UNL1        0.0618
     43 H           6.3953   -0.0245   -0.8077 H       1  UNL1        0.0621
@<TRIPOS>BOND
     1     1    20    1
     2     1    21    1
     3     1    22    1
     4     2     1    1
     5     2    23    1
     6     3     2    1
     7     4    25    1
     8     5     3    1
     9     5    26    1
    10     5    27    1
    11     6     5    1
    12     6    28    1
    13     7     6    1
    14     7    29    1
    15     7    30    1
    16     8     7    1
    17     8     2    1
    18     8    31    1
    19     9     8    1
    20     9    32    1
    21    10     9    1
    22    11    10    1
    23    11     6    1
    24    12    11    1
    25    12    33    1
    26    12    34    1
    27    12    35    1
    28    13    11    1
    29    13    36    1
    30    13    37    1
    31    13    38    1
    32    14     9    1
    33    15    14   ar
    34    15    39    1
    35    16    15   ar
    36    16    40    1
    37    17    16   ar
    38    17    41    1
    39    18    17   ar
    40    18    42    1
    41    19    18   ar
    42    19    14   ar
    43    19    43    1
    44     3     4    1
    45     3    24    1
@<TRIPOS>MOLECULE
mol_294_akc_s00436_017_5713_6
>285.sdf
 54 56 0 0 0
SMALL
GASTEIGER

@<TRIPOS>ATOM
      1 C           2.4240   -0.4215   -0.4299 C.3     1  UNL1       -0.0349
      2 C           1.0123   -0.0906    0.0390 C.3     1  UNL1        0.1005
      3 O           0.2209   -1.2767   -0.1413 O.3     1  UNL1       -0.3319
      4 C          -1.0776   -1.1741    0.4608 C.3     1  UNL1        0.2433
      5 O          -1.0133   -1.0447    1.8894 O.2     1  UNL1       -0.4556
      6 C          -0.5303   -2.0987    2.6570 C.2     1  UNL1        0.1747
      7 C          -0.1149   -3.2806    2.1785 C.2     1  UNL1        0.0313
      8 C           0.4259   -4.3564    3.0323 C.2     1  UNL1        0.1903
      9 O           0.6228   -5.4682    2.5715 O.2     1  UNL1       -0.2871
     10 C           0.7330   -4.0336    4.4302 C.ar    1  UNL1        0.0327
     11 C           0.2586   -2.8501    4.9845 C.ar    1  UNL1        0.0361
     12 C           0.5109   -2.5849    6.3399 C.ar    1  UNL1       -0.0501
     13 C           1.2735   -3.4756    7.1059 C.ar    1  UNL1       -0.0610
     14 C           1.7820   -4.6382    6.5274 C.ar    1  UNL1       -0.0610
     15 C           1.4995   -4.9275    5.1934 C.ar    1  UNL1       -0.0502
     16 C          -0.4811   -1.8766    4.1502 C.2     1  UNL1        0.2282
     17 O          -1.0190   -0.9078    4.6765 O.2     1  UNL1       -0.2834
     18 C          -1.8496   -0.0194   -0.2201 C.3     1  UNL1        0.2048
     19 O          -3.2372    0.0493    0.2183 O.3     1  UNL1       -0.4513
     20 C          -3.5561    0.6354    1.4008 C.2     1  UNL1        0.3045
     21 C          -5.0245    0.5296    1.6788 C.3     1  UNL1        0.0332
     22 O          -2.7753    1.1906    2.1559 O.2     1  UNL1       -0.2512
     23 C          -1.0719    1.3118   -0.1707 C.3     1  UNL1        0.1846
     24 O          -1.7903    2.2894   -0.9629 O.3     1  UNL1       -0.4537
     25 C          -1.7872    3.5570   -0.4690 C.2     1  UNL1        0.3044
     26 C          -2.5888    4.4750   -1.3478 C.3     1  UNL1        0.0332
     27 O          -1.2544    3.9141    0.5679 O.2     1  UNL1       -0.2512
     28 C           0.3912    1.1492   -0.6545 C.3     1  UNL1        0.1692
     29 O           0.4744    1.0566   -2.1037 O.3     1  UNL1       -0.4550
     30 C           0.6866    2.2470   -2.7450 C.2     1  UNL1        0.3044
     31 C           0.8132    2.0938   -4.2286 C.3     1  UNL1        0.0332
     32 O           0.7401    3.3435   -2.1964 O.2     1  UNL1       -0.2512
     33 H           3.1165    0.3953   -0.2057 H       1  UNL1        0.0256
     34 H           2.7834   -1.3235    0.0814 H       1  UNL1        0.0256
     35 H           2.4625   -0.6388   -1.5021 H       1  UNL1        0.0256
     36 H           1.0744    0.1134    1.1150 H       1  UNL1        0.0633
     37 H          -1.6320   -2.0942    0.2364 H       1  UNL1        0.1097
     38 H          -0.1346   -3.5370    1.1272 H       1  UNL1        0.0694
     39 H           0.1237   -1.6790    6.8056 H       1  UNL1        0.0625
     40 H           1.4783   -3.2587    8.1530 H       1  UNL1        0.0618
     41 H           2.3924   -5.3211    7.1153 H       1  UNL1        0.0618
     42 H           1.8852   -5.8418    4.7469 H       1  UNL1        0.0625
     43 H          -1.9323   -0.2819   -1.2846 H       1  UNL1        0.0837
     44 H          -5.1696    0.0125    2.6310 H       1  UNL1        0.0342
     45 H          -5.4574    1.5324    1.7215 H       1  UNL1        0.0342
     46 H          -5.5348   -0.0386    0.8965 H       1  UNL1        0.0342
     47 H          -1.0074    1.6396    0.8679 H       1  UNL1        0.0813
     48 H          -3.6547    4.3365   -1.1569 H       1  UNL1        0.0342
     49 H          -2.3127    5.5096   -1.1230 H       1  UNL1        0.0342
     50 H          -2.3605    4.2898   -2.4017 H       1  UNL1        0.0342
     51 H           0.9755    2.0190   -0.3289 H       1  UNL1        0.0799
     52 H          -0.1672    2.1890   -4.7006 H       1  UNL1        0.0342
     53 H           1.4693    2.8870   -4.6086 H       1  UNL1        0.0342
     54 H           1.2746    1.1380   -4.4925 H       1  UNL1        0.0342
@<TRIPOS>BOND
     1     1    33    1
     2     1    34    1
     3     1    35    1
     4     2     1    1
     5     2    36    1
     6     3     2    1
     7     4     3    1
     8     6     5    1
     9     7     6    2
    10     7    38    1
    11     8     7    1
    12     9     8    2
    13    10     8    1
    14    11    10   ar
    15    12    11   ar
    16    12    39    1
    17    13    12   ar
    18    13    40    1
    19    14    13   ar
    20    14    41    1
    21    15    14   ar
    22    15    10   ar
    23    15    42    1
    24    16    11    1
    25    16     6    1
    26    17    16    2
    27    18     4    1
    28    20    19    1
    29    21    20    1
    30    21    44    1
    31    21    45    1
    32    21    46    1
    33    22    20    2
    34    23    18    1
    35    23    47    1
    36    24    23    1
    37    25    24    1
    38    26    25    1
    39    26    48    1
    40    26    49    1
    41    26    50    1
    42    27    25    2
    43    28    23    1
    44    28     2    1
    45    28    51    1
    46    29    28    1
    47    30    29    1
    48    31    30    1
    49    31    52    1
    50    31    53    1
    51    31    54    1
    52    32    30    2
    53     4     5    1
    54     4    37    1
    55    18    19    1
    56    18    43    1
@<TRIPOS>MOLECULE
mol_295_akc_cbdd13088
>286.sdf
 56 60 0 0 0
SMALL
GASTEIGER

@<TRIPOS>ATOM
      1 O          -2.2069   -2.0926    5.2717 O.3     1  UNL1       -0.2951
      2 N          -1.5619   -1.2732    4.3197 N.am    1  UNL1       -0.1962
      3 C          -0.5306   -1.8444    3.6264 C.2     1  UNL1        0.2533
      4 O          -0.2014   -3.0176    3.8054 O.2     1  UNL1       -0.2720
      5 C           0.2668   -0.8936    2.7602 C.3     1  UNL1        0.1006
      6 N          -0.3759   -0.3241    1.5810 N.am    1  UNL1       -0.2303
      7 C           0.4156   -0.4683    0.4361 C.2     1  UNL1        0.2396
      8 O           0.6645   -1.5317   -0.1096 O.2     1  UNL1       -0.2734
      9 C           1.0516    0.8666    0.1019 C.3     1  UNL1        0.0901
     10 C           2.1405    0.8360   -0.9856 C.3     1  UNL1       -0.0037
     11 C           2.6671    2.2571   -1.1431 C.ar    1  UNL1       -0.0454
     12 C           3.3364    2.8709   -0.0726 C.ar    1  UNL1       -0.0585
     13 C           3.4539    4.2581   -0.0221 C.ar    1  UNL1       -0.0615
     14 C           2.9490    5.0379   -1.0610 C.ar    1  UNL1       -0.0617
     15 C           2.3597    4.4300   -2.1683 C.ar    1  UNL1       -0.0615
     16 C           2.2219    3.0434   -2.2159 C.ar    1  UNL1       -0.0585
     17 N           0.0177    1.8547   -0.2261 N.3     1  UNL1       -0.2918
     18 C          -1.2984    1.7523    0.4512 C.3     1  UNL1        0.1029
     19 C          -2.3144    1.1764   -0.5806 C.3     1  UNL1       -0.0134
     20 C          -3.7581    1.2468   -0.0301 C.3     1  UNL1       -0.0452
     21 C          -4.1631    2.7048    0.2480 C.3     1  UNL1       -0.0401
     22 C          -4.0817    3.5285   -1.0483 C.3     1  UNL1       -0.0473
     23 C          -2.6495    3.4859   -1.5958 C.3     1  UNL1       -0.0401
     24 C          -2.2828    2.0172   -1.8880 C.3     1  UNL1       -0.0452
     25 C          -1.7160    4.0912   -0.5319 C.3     1  UNL1       -0.0452
     26 C          -1.7476    3.2260    0.7637 C.3     1  UNL1       -0.0134
     27 C          -3.1989    3.2873    1.2895 C.3     1  UNL1       -0.0452
     28 C          -1.1200    0.8525    1.7492 C.2     1  UNL1        0.2430
     29 O          -1.5258    1.1861    2.8648 O.2     1  UNL1       -0.2731
     30 H          -1.6917   -2.9288    5.2146 H       1  UNL1        0.2414
     31 H          -1.8622   -0.3027    4.2242 H       1  UNL1        0.1822
     32 H           1.1830   -1.4224    2.4648 H       1  UNL1        0.0566
     33 H           0.6051   -0.0670    3.4015 H       1  UNL1        0.0566
     34 H           1.5316    1.1891    1.0380 H       1  UNL1        0.0560
     35 H           1.7402    0.4571   -1.9347 H       1  UNL1        0.0333
     36 H           2.9589    0.1658   -0.6978 H       1  UNL1        0.0333
     37 H           3.6800    2.2810    0.7749 H       1  UNL1        0.0620
     38 H           3.9010    4.7337    0.8471 H       1  UNL1        0.0618
     39 H           3.0028    6.1216   -1.0014 H       1  UNL1        0.0618
     40 H           1.9583    5.0402   -2.9742 H       1  UNL1        0.0618
     41 H           1.6775    2.5922   -3.0429 H       1  UNL1        0.0620
     42 H           0.4292    2.7723   -0.0852 H       1  UNL1        0.1236
     43 H          -2.0826    0.1313   -0.8187 H       1  UNL1        0.0324
     44 H          -3.8469    0.6512    0.8852 H       1  UNL1        0.0271
     45 H          -4.4531    0.8105   -0.7588 H       1  UNL1        0.0271
     46 H          -5.1887    2.7414    0.6336 H       1  UNL1        0.0301
     47 H          -4.7805    3.1356   -1.7969 H       1  UNL1        0.0271
     48 H          -4.3751    4.5690   -0.8577 H       1  UNL1        0.0271
     49 H          -2.5839    4.0734   -2.5192 H       1  UNL1        0.0301
     50 H          -1.2989    1.9630   -2.3687 H       1  UNL1        0.0271
     51 H          -2.9915    1.5978   -2.6139 H       1  UNL1        0.0271
     52 H          -2.0301    5.1166   -0.2974 H       1  UNL1        0.0271
     53 H          -0.7041    4.1887   -0.9384 H       1  UNL1        0.0271
     54 H          -1.0809    3.6722    1.5127 H       1  UNL1        0.0324
     55 H          -3.2987    2.7458    2.2361 H       1  UNL1        0.0271
     56 H          -3.4678    4.3290    1.5024 H       1  UNL1        0.0271
@<TRIPOS>BOND
     1     1    30    1
     2     2     1    1
     3     2    31    1
     4     3     2   am
     5     4     3    2
     6     5     3    1
     7     5    32    1
     8     5    33    1
     9     6     5    1
    10     7     6   am
    11     8     7    2
    12     9     7    1
    13    10    35    1
    14    10    36    1
    15    11    10    1
    16    12    11   ar
    17    12    37    1
    18    13    12   ar
    19    13    38    1
    20    14    13   ar
    21    14    39    1
    22    15    14   ar
    23    15    40    1
    24    16    15   ar
    25    16    11   ar
    26    16    41    1
    27    17     9    1
    28    17    42    1
    29    18    17    1
    30    19    18    1
    31    19    43    1
    32    20    19    1
    33    20    44    1
    34    20    45    1
    35    21    20    1
    36    21    46    1
    37    22    21    1
    38    22    47    1
    39    22    48    1
    40    23    22    1
    41    23    49    1
    42    24    23    1
    43    24    19    1
    44    24    50    1
    45    24    51    1
    46    25    23    1
    47    25    52    1
    48    25    53    1
    49    26    25    1
    50    26    18    1
    51    26    54    1
    52    27    26    1
    53    27    21    1
    54    27    55    1
    55    27    56    1
    56    28    18    1
    57    28     6   am
    58    29    28    2
    59     9    10    1
    60     9    34    1
@<TRIPOS>MOLECULE
mol_296_akc_cbdd13088
>286_2.sdf
 56 60 0 0 0
SMALL
GASTEIGER

@<TRIPOS>ATOM
      1 O           5.3702   -5.6986   -1.1735 O.3     1  UNL1       -0.2951
      2 N           5.1375   -5.0868    0.0690 N.am    1  UNL1       -0.1962
      3 C           3.8976   -4.5395    0.3131 C.2     1  UNL1        0.2533
      4 O           3.5664   -4.2621    1.4703 O.2     1  UNL1       -0.2720
      5 C           3.0156   -4.3056   -0.9022 C.3     1  UNL1        0.1006
      6 N           1.8621   -3.4677   -0.5944 N.am    1  UNL1       -0.2303
      7 C           0.6933   -4.1029   -0.2036 C.2     1  UNL1        0.2396
      8 O           0.6640   -5.2892    0.1379 O.2     1  UNL1       -0.2734
      9 C          -0.5791   -3.2502   -0.1898 C.3     1  UNL1        0.0901
     10 C          -1.7213   -4.0153   -0.9269 C.3     1  UNL1       -0.0037
     11 C          -1.3549   -4.2594   -2.3841 C.ar    1  UNL1       -0.0454
     12 C          -0.7106   -5.4474   -2.7486 C.ar    1  UNL1       -0.0585
     13 C          -0.0349   -5.5314   -3.9643 C.ar    1  UNL1       -0.0615
     14 C          -0.0141   -4.4387   -4.8300 C.ar    1  UNL1       -0.0617
     15 C          -0.7319   -3.2874   -4.5173 C.ar    1  UNL1       -0.0615
     16 C          -1.4281   -3.2105   -3.3137 C.ar    1  UNL1       -0.0585
     17 N          -0.3852   -1.9601   -0.8655 N.3     1  UNL1       -0.2918
     18 C           0.7868   -1.1662   -0.4592 C.3     1  UNL1        0.1029
     19 C           0.5873   -0.5685    0.9634 C.3     1  UNL1       -0.0134
     20 C           1.7427    0.3908    1.3256 C.3     1  UNL1       -0.0452
     21 C           1.8091    1.5661    0.3336 C.3     1  UNL1       -0.0401
     22 C           0.4846    2.3485    0.3643 C.3     1  UNL1       -0.0473
     23 C          -0.6736    1.4144   -0.0189 C.3     1  UNL1       -0.0401
     24 C          -0.7227    0.2681    1.0132 C.3     1  UNL1       -0.0452
     25 C          -0.4177    0.8794   -1.4421 C.3     1  UNL1       -0.0452
     26 C           0.8888    0.0440   -1.4634 C.3     1  UNL1       -0.0134
     27 C           2.0243    1.0275   -1.0871 C.3     1  UNL1       -0.0452
     28 C           2.0529   -2.0880   -0.6168 C.2     1  UNL1        0.2430
     29 O           3.1940   -1.6300   -0.7253 O.2     1  UNL1       -0.2731
     30 H           6.0171   -5.0894   -1.5804 H       1  UNL1        0.2414
     31 H           5.6126   -5.4797    0.8812 H       1  UNL1        0.1822
     32 H           3.6049   -3.8232   -1.6894 H       1  UNL1        0.0566
     33 H           2.6765   -5.2763   -1.2796 H       1  UNL1        0.0566
     34 H          -0.8648   -3.0927    0.8561 H       1  UNL1        0.0560
     35 H          -1.9269   -4.9715   -0.4284 H       1  UNL1        0.0333
     36 H          -2.6551   -3.4397   -0.8771 H       1  UNL1        0.0333
     37 H          -0.6553   -6.2805   -2.0491 H       1  UNL1        0.0620
     38 H           0.5185   -6.4327   -4.2109 H       1  UNL1        0.0618
     39 H           0.5715   -4.4796   -5.7435 H       1  UNL1        0.0618
     40 H          -0.7090   -2.4289   -5.1826 H       1  UNL1        0.0618
     41 H          -1.9327   -2.2815   -3.0581 H       1  UNL1        0.0620
     42 H          -1.2496   -1.4317   -0.8172 H       1  UNL1        0.1236
     43 H           0.5449   -1.3642    1.7160 H       1  UNL1        0.0324
     44 H           1.5888    0.7800    2.3403 H       1  UNL1        0.0271
     45 H           2.6974   -0.1451    1.3449 H       1  UNL1        0.0271
     46 H           2.6331    2.2346    0.6057 H       1  UNL1        0.0301
     47 H           0.3151    2.7696    1.3622 H       1  UNL1        0.0271
     48 H           0.5303    3.1937   -0.3339 H       1  UNL1        0.0271
     49 H          -1.6177    1.9704   -0.0025 H       1  UNL1        0.0301
     50 H          -0.8527    0.6868    2.0195 H       1  UNL1        0.0271
     51 H          -1.6058   -0.3572    0.8440 H       1  UNL1        0.0271
     52 H          -1.2756    0.3007   -1.7995 H       1  UNL1        0.0271
     53 H          -0.3268    1.7183   -2.1448 H       1  UNL1        0.0271
     54 H           1.0685   -0.3271   -2.4810 H       1  UNL1        0.0324
     55 H           2.0373    1.8615   -1.8011 H       1  UNL1        0.0271
     56 H           3.0124    0.5707   -1.1699 H       1  UNL1        0.0271
@<TRIPOS>BOND
     1     1    30    1
     2     2     1    1
     3     2    31    1
     4     3     2   am
     5     4     3    2
     6     5     3    1
     7     5    32    1
     8     5    33    1
     9     6     5    1
    10     7     6   am
    11     8     7    2
    12     9     7    1
    13     9    34    1
    14    10     9    1
    15    10    35    1
    16    10    36    1
    17    11    10    1
    18    12    11   ar
    19    12    37    1
    20    13    12   ar
    21    13    38    1
    22    14    13   ar
    23    14    39    1
    24    15    14   ar
    25    15    40    1
    26    16    15   ar
    27    16    11   ar
    28    16    41    1
    29    17     9    1
    30    17    42    1
    31    18    17    1
    32    19    18    1
    33    19    43    1
    34    20    19    1
    35    20    44    1
    36    20    45    1
    37    21    20    1
    38    21    46    1
    39    22    21    1
    40    22    47    1
    41    22    48    1
    42    23    22    1
    43    23    49    1
    44    24    23    1
    45    24    19    1
    46    24    50    1
    47    24    51    1
    48    25    23    1
    49    25    52    1
    50    25    53    1
    51    26    25    1
    52    26    18    1
    53    26    54    1
    54    27    26    1
    55    27    21    1
    56    27    55    1
    57    27    56    1
    58    28    18    1
    59    28     6   am
    60    29    28    2
@<TRIPOS>MOLECULE
mol_297_akc_s00044_017_2076_6
>287.sdf
 61 63 0 0 0
SMALL
GASTEIGER

@<TRIPOS>ATOM
      1 C           1.1301    0.0303   -0.0082 C.3     1  UNL1        0.0896
      2 C           0.6145    0.4459   -1.3781 C.3     1  UNL1       -0.0186
      3 C          -0.9100    0.4262   -1.4157 C.3     1  UNL1       -0.0500
      4 C          -1.4316    0.8435   -2.7871 C.3     1  UNL1       -0.0529
      5 C          -2.9574    0.8208   -2.8172 C.3     1  UNL1       -0.0529
      6 C          -3.4836    1.2366   -4.1883 C.3     1  UNL1       -0.0473
      7 C          -5.0084    1.2126   -4.2159 C.3     1  UNL1        0.0070
      8 C          -5.5410    1.6297   -5.5806 C.3     1  UNL1        0.1520
      9 N          -7.0042    1.6043   -5.5956 N.ar    1  UNL1       -0.1876
     10 C          -7.7900    2.6429   -5.2744 C.ar    1  UNL1        0.2477
     11 N          -9.0633    2.2376   -5.3896 N.ar    1  UNL1       -0.2988
     12 C         -10.2203    3.0824   -5.1262 C.3     1  UNL1        0.0167
     13 C          -9.0916    0.9127   -5.7930 C.ar    1  UNL1        0.0729
     14 C          -7.7927    0.5152   -5.9304 C.ar    1  UNL1        0.1888
     15 O           2.5576    0.0620   -0.0384 O.3     1  UNL1       -0.4920
     16 C           3.1895   -0.3048    1.1186 C.ar    1  UNL1        0.1205
     17 C           2.5485   -0.6737    2.3010 C.ar    1  UNL1       -0.0193
     18 C           3.2882   -1.0515    3.4292 C.ar    1  UNL1       -0.0475
     19 C           4.6876   -1.0658    3.3893 C.ar    1  UNL1        0.0219
     20 C           5.3287   -0.7128    2.1927 C.ar    1  UNL1       -0.0475
     21 C           4.5840   -0.3226    1.0709 C.ar    1  UNL1       -0.0193
     22 C           5.5347   -1.4677    4.5561 C.2     1  UNL1        0.1862
     23 O           6.6382   -1.9739    4.3670 O.2     1  UNL1       -0.2873
     24 C           5.0215   -1.2161    5.9286 C.2     1  UNL1       -0.0109
     25 C           5.7488   -1.5492    7.0141 C.2     1  UNL1       -0.0157
     26 C           5.2085   -1.3453    8.3144 C.ar    1  UNL1        0.1278
     27 C           5.7697   -1.6241    9.5581 C.ar    1  UNL1       -0.0165
     28 C           4.8365   -1.2456   10.5541 C.ar    1  UNL1       -0.0233
     29 C           3.7471   -0.7600    9.8801 C.ar    1  UNL1        0.0925
     30 O           3.9564   -0.8119    8.5448 O.2     1  UNL1       -0.4635
     31 H           0.7716   -0.9853    0.2063 H       1  UNL1        0.0696
     32 H           0.9942    1.4440   -1.6262 H       1  UNL1        0.0298
     33 H           1.0218   -0.2337   -2.1369 H       1  UNL1        0.0298
     34 H          -1.2736   -0.5808   -1.1754 H       1  UNL1        0.0266
     35 H          -1.3059    1.1029   -0.6487 H       1  UNL1        0.0266
     36 H          -1.0725    1.8514   -3.0274 H       1  UNL1        0.0265
     37 H          -1.0365    0.1667   -3.5546 H       1  UNL1        0.0265
     38 H          -3.3164   -0.1869   -2.5740 H       1  UNL1        0.0265
     39 H          -3.3517    1.4980   -2.0497 H       1  UNL1        0.0265
     40 H          -3.1246    2.2439   -4.4319 H       1  UNL1        0.0267
     41 H          -3.0901    0.5579   -4.9549 H       1  UNL1        0.0267
     42 H          -5.3679    0.2057   -3.9709 H       1  UNL1        0.0326
     43 H          -5.4083    1.8834   -3.4457 H       1  UNL1        0.0326
     44 H          -5.2112    2.6439   -5.8328 H       1  UNL1        0.1031
     45 H          -5.1776    0.9567   -6.3657 H       1  UNL1        0.1031
     46 H          -7.4566    3.6299   -4.9723 H       1  UNL1        0.1600
     47 H         -10.1792    3.4256   -4.0891 H       1  UNL1        0.0457
     48 H         -10.1929    3.9400   -5.8035 H       1  UNL1        0.0457
     49 H         -11.1438    2.5201   -5.2875 H       1  UNL1        0.0457
     50 H         -10.0388    0.4202   -5.9306 H       1  UNL1        0.0871
     51 H          -7.3201   -0.4088   -6.2171 H       1  UNL1        0.1392
     52 H           1.4662   -0.6972    2.3769 H       1  UNL1        0.0654
     53 H           2.7325   -1.3541    4.3110 H       1  UNL1        0.0626
     54 H           6.4152   -0.7354    2.1267 H       1  UNL1        0.0626
     55 H           5.0990   -0.0462    0.1529 H       1  UNL1        0.0654
     56 H           4.0526   -0.7517    6.0430 H       1  UNL1        0.0657
     57 H           6.7406   -1.9817    6.9210 H       1  UNL1        0.0655
     58 H           6.7497   -2.0483    9.7264 H       1  UNL1        0.0655
     59 H           4.9471   -1.3145   11.6276 H       1  UNL1        0.0649
     60 H           2.7936   -0.3556   10.1870 H       1  UNL1        0.1029
     61 H           0.7571    0.7241    0.7557 H       1  UNL1        0.0696
@<TRIPOS>UNITY_ATOM_ATTR
9 1
charge 1
@<TRIPOS>BOND
     1     1    31    1
     2     1    61    1
     3     2     1    1
     4     2    32    1
     5     2    33    1
     6     3     2    1
     7     3    34    1
     8     3    35    1
     9     4     3    1
    10     4    36    1
    11     4    37    1
    12     5     4    1
    13     5    38    1
    14     5    39    1
    15     6     5    1
    16     6    40    1
    17     6    41    1
    18     7     6    1
    19     7    42    1
    20     7    43    1
    21     8     7    1
    22     8    44    1
    23     8    45    1
    24     9     8    1
    25    10     9   ar
    26    10    46    1
    27    11    10   ar
    28    12    11    1
    29    12    47    1
    30    12    48    1
    31    12    49    1
    32    13    11   ar
    33    13    50    1
    34    14    13   ar
    35    14     9   ar
    36    14    51    1
    37    15     1    1
    38    16    15    1
    39    17    16   ar
    40    17    52    1
    41    18    17   ar
    42    18    53    1
    43    19    18   ar
    44    20    19   ar
    45    20    54    1
    46    21    20   ar
    47    21    16   ar
    48    21    55    1
    49    22    19    1
    50    23    22    2
    51    24    22    1
    52    24    56    1
    53    25    24    2
    54    25    57    1
    55    26    25    1
    56    27    26   ar
    57    27    58    1
    58    28    27   ar
    59    28    59    1
    60    29    28   ar
    61    29    60    1
    62    30    29   ar
    63    30    26   ar
@<TRIPOS>MOLECULE
mol_298_akc_s00044_017_2076_6
>288.sdf
 73 75 0 0 0
SMALL
GASTEIGER

@<TRIPOS>ATOM
      1 C           4.7738   -7.0216    3.2160 C.3     1  UNL1       -0.0653
      2 C           4.5142   -5.5257    3.1628 C.3     1  UNL1       -0.0558
      3 C           4.9961   -4.9539    1.8334 C.3     1  UNL1       -0.0500
      4 C           4.7105   -3.4549    1.7204 C.3     1  UNL1       -0.0158
      5 C           5.1658   -2.8500    0.3791 C.3     1  UNL1        0.1002
      6 C           4.5912   -3.5967   -0.8437 C.3     1  UNL1       -0.0158
      7 C           3.0523   -3.6138   -0.8832 C.3     1  UNL1       -0.0497
      8 C           2.4009   -2.2271   -0.8133 C.3     1  UNL1       -0.0529
      9 C           2.8257   -1.3495   -1.9859 C.3     1  UNL1       -0.0529
     10 C           2.2754    0.0662   -1.8754 C.3     1  UNL1       -0.0473
     11 C           2.7358    0.8872   -3.0756 C.3     1  UNL1        0.0070
     12 C           2.2196    2.3143   -3.0037 C.3     1  UNL1        0.1520
     13 N           2.6626    3.0751   -4.1713 N.ar    1  UNL1       -0.1876
     14 C           3.8049    3.7755   -4.2335 C.ar    1  UNL1        0.2477
     15 N           3.8659    4.3404   -5.4478 N.ar    1  UNL1       -0.2988
     16 C           4.9507    5.2044   -5.8927 C.3     1  UNL1        0.0167
     17 C           2.7512    3.9758   -6.1848 C.ar    1  UNL1        0.0729
     18 C           1.9937    3.1732   -5.3804 C.ar    1  UNL1        0.1888
     19 O           6.6002   -2.8549    0.2938 O.3     1  UNL1       -0.4888
     20 C           7.2751   -1.8002    0.8551 C.ar    1  UNL1        0.1209
     21 C           6.7067   -0.7234    1.5393 C.ar    1  UNL1       -0.0193
     22 C           7.5027    0.3157    2.0306 C.ar    1  UNL1       -0.0475
     23 C           8.8865    0.2936    1.8451 C.ar    1  UNL1        0.0219
     24 C           9.4687   -0.8080    1.2103 C.ar    1  UNL1       -0.0475
     25 C           8.6678   -1.8403    0.7119 C.ar    1  UNL1       -0.0193
     26 C           9.6682    1.4639    2.3333 C.2     1  UNL1        0.1862
     27 O           9.2332    2.1729    3.2346 O.2     1  UNL1       -0.2873
     28 C          10.9267    1.7907    1.6183 C.2     1  UNL1       -0.0109
     29 C          11.7073    2.8046    2.0156 C.2     1  UNL1       -0.0157
     30 C          12.8843    3.1100    1.2777 C.ar    1  UNL1        0.1278
     31 C          13.8317    4.1023    1.4980 C.ar    1  UNL1       -0.0165
     32 C          14.8156    3.9988    0.4831 C.ar    1  UNL1       -0.0233
     33 C          14.4288    2.9516   -0.3084 C.ar    1  UNL1        0.0925
     34 O          13.2761    2.4141    0.1509 O.2     1  UNL1       -0.4635
     35 H           4.4393   -7.4353    4.1724 H       1  UNL1        0.0230
     36 H           4.2372   -7.5392    2.4141 H       1  UNL1        0.0230
     37 H           5.8420   -7.2356    3.1034 H       1  UNL1        0.0230
     38 H           3.4396   -5.3404    3.2812 H       1  UNL1        0.0263
     39 H           5.0266   -5.0301    3.9943 H       1  UNL1        0.0263
     40 H           6.0712   -5.1352    1.7180 H       1  UNL1        0.0266
     41 H           4.4877   -5.4980    1.0309 H       1  UNL1        0.0266
     42 H           3.6385   -3.2736    1.8582 H       1  UNL1        0.0301
     43 H           5.2193   -2.9469    2.5475 H       1  UNL1        0.0301
     44 H           4.8084   -1.8218    0.2896 H       1  UNL1        0.0733
     45 H           4.9858   -3.1405   -1.7600 H       1  UNL1        0.0301
     46 H           4.9715   -4.6241   -0.8872 H       1  UNL1        0.0301
     47 H           2.7279   -4.1152   -1.8031 H       1  UNL1        0.0266
     48 H           2.6661   -4.2220   -0.0571 H       1  UNL1        0.0266
     49 H           1.3106   -2.3430   -0.8175 H       1  UNL1        0.0265
     50 H           2.6440   -1.7352    0.1363 H       1  UNL1        0.0265
     51 H           3.9171   -1.2821   -2.0390 H       1  UNL1        0.0265
     52 H           2.4858   -1.8115   -2.9207 H       1  UNL1        0.0265
     53 H           1.1806    0.0429   -1.8302 H       1  UNL1        0.0267
     54 H           2.6332    0.5320   -0.9490 H       1  UNL1        0.0267
     55 H           3.8323    0.8973   -3.1246 H       1  UNL1        0.0326
     56 H           2.3894    0.4147   -4.0033 H       1  UNL1        0.0326
     57 H           1.1248    2.3332   -2.9692 H       1  UNL1        0.1031
     58 H           2.5917    2.8176   -2.1041 H       1  UNL1        0.1031
     59 H           4.5431    3.8691   -3.4447 H       1  UNL1        0.1600
     60 H           4.9969    6.0773   -5.2364 H       1  UNL1        0.0457
     61 H           5.8910    4.6493   -5.8390 H       1  UNL1        0.0457
     62 H           4.7777    5.5311   -6.9217 H       1  UNL1        0.0457
     63 H           2.6408    4.3355   -7.1926 H       1  UNL1        0.0871
     64 H           1.0596    2.6532   -5.5088 H       1  UNL1        0.1392
     65 H           5.6394   -0.6531    1.7285 H       1  UNL1        0.0654
     66 H           7.0324    1.1464    2.5528 H       1  UNL1        0.0626
     67 H          10.5483   -0.8972    1.1005 H       1  UNL1        0.0626
     68 H           9.1295   -2.6895    0.2116 H       1  UNL1        0.0654
     69 H          11.1804    1.2117    0.7392 H       1  UNL1        0.0657
     70 H          11.4574    3.4061    2.8876 H       1  UNL1        0.0655
     71 H          13.8120    4.8202    2.3074 H       1  UNL1        0.0655
     72 H          15.6974    4.6108    0.3509 H       1  UNL1        0.0649
     73 H          14.8426    2.4838   -1.1920 H       1  UNL1        0.1029
@<TRIPOS>UNITY_ATOM_ATTR
13 1
charge 1
@<TRIPOS>BOND
     1     1    35    1
     2     1    36    1
     3     1    37    1
     4     2     1    1
     5     2    38    1
     6     2    39    1
     7     3     2    1
     8     3    40    1
     9     3    41    1
    10     4     3    1
    11     4    42    1
    12     4    43    1
    13     6     5    1
    14     6    45    1
    15     6    46    1
    16     7     6    1
    17     7    47    1
    18     7    48    1
    19     8     7    1
    20     8    49    1
    21     8    50    1
    22     9     8    1
    23     9    51    1
    24     9    52    1
    25    10     9    1
    26    10    53    1
    27    10    54    1
    28    11    10    1
    29    11    55    1
    30    11    56    1
    31    12    11    1
    32    12    57    1
    33    12    58    1
    34    13    12    1
    35    14    13   ar
    36    14    59    1
    37    15    14   ar
    38    16    15    1
    39    16    60    1
    40    16    61    1
    41    16    62    1
    42    17    15   ar
    43    17    63    1
    44    18    17   ar
    45    18    13   ar
    46    18    64    1
    47    19     5    1
    48    20    19    1
    49    21    20   ar
    50    21    65    1
    51    22    21   ar
    52    22    66    1
    53    23    22   ar
    54    24    23   ar
    55    24    67    1
    56    25    24   ar
    57    25    20   ar
    58    25    68    1
    59    26    23    1
    60    27    26    2
    61    28    26    1
    62    28    69    1
    63    29    28    2
    64    29    70    1
    65    30    29    1
    66    31    30   ar
    67    31    71    1
    68    32    31   ar
    69    32    72    1
    70    33    32   ar
    71    33    73    1
    72    34    33   ar
    73    34    30   ar
    74     5    44    1
    75     5     4    1
@<TRIPOS>MOLECULE
mol_299_akc_acsjnatprod7b00876
>289.sdf
 48 49 0 0 0
SMALL
GASTEIGER

@<TRIPOS>ATOM
      1 BR         -8.4308   -2.6691    7.2069 Br      1  UNL1       -0.0425
      2 C          -7.9326   -1.0366    6.4364 C.ar    1  UNL1        0.0556
      3 C          -7.5188    0.0524    7.1562 C.ar    1  UNL1       -0.0399
      4 C          -7.2178    1.1543    6.2979 C.ar    1  UNL1       -0.0414
      5 C          -7.4213    0.8589    4.9597 C.ar    1  UNL1        0.0749
      6 S          -7.9580   -0.7654    4.7672 S.2     1  UNL1       -0.0769
      7 C          -7.2509    1.7495    3.8204 C.2     1  UNL1        0.2507
      8 O          -6.9506    2.9380    3.9197 O.2     1  UNL1       -0.2696
      9 N          -7.4646    1.1657    2.5831 N.am    1  UNL1       -0.3109
     10 C          -7.1688    1.8645    1.3557 C.3     1  UNL1        0.0121
     11 C          -7.5958    1.0458    0.1368 C.3     1  UNL1       -0.0326
     12 C          -9.0738    0.6212    0.1411 C.3     1  UNL1       -0.0112
     13 C         -10.0083    1.8175    0.1788 C.3     1  UNL1       -0.0336
     14 N         -11.4257    1.3477    0.1884 N.4     1  UNL1        0.2270
     15 C         -12.3996    2.4850    0.2117 C.3     1  UNL1       -0.0322
     16 C         -13.8108    1.9363    0.2206 C.3     1  UNL1        0.0030
     17 C         -14.8209    3.0809    0.3068 C.3     1  UNL1        0.0167
     18 N         -16.1804    2.6060    0.3195 N.am    1  UNL1       -0.3107
     19 C         -16.7087    1.8933    1.3780 C.2     1  UNL1        0.2507
     20 O         -15.9951    1.5507    2.3227 O.2     1  UNL1       -0.2696
     21 C         -18.1210    1.5651    1.2843 C.ar    1  UNL1        0.0749
     22 C         -18.8603    0.8071    2.1762 C.ar    1  UNL1       -0.0414
     23 C         -20.2237    0.6664    1.7785 C.ar    1  UNL1       -0.0399
     24 C         -20.4652    1.3273    0.6023 C.ar    1  UNL1        0.0556
     25 BR        -22.1372    1.3744   -0.2386 Br      1  UNL1       -0.0425
     26 S         -19.0975    2.1009   -0.0242 S.2     1  UNL1       -0.0769
     27 H          -7.4346    0.0747    8.2367 H       1  UNL1        0.0634
     28 H          -6.8740    2.1235    6.6435 H       1  UNL1        0.0631
     29 H          -7.4435    0.1499    2.5880 H       1  UNL1        0.1490
     30 H          -7.6739    2.8377    1.3772 H       1  UNL1        0.0462
     31 H          -6.0927    2.0641    1.3237 H       1  UNL1        0.0462
     32 H          -7.3861    1.6230   -0.7717 H       1  UNL1        0.0282
     33 H          -6.9800    0.1393    0.0854 H       1  UNL1        0.0282
     34 H          -9.2657    0.0260   -0.7593 H       1  UNL1        0.0317
     35 H          -9.2702   -0.0403    0.9943 H       1  UNL1        0.0317
     36 H          -9.8744    2.4187    1.0822 H       1  UNL1        0.0814
     37 H          -9.8798    2.4433   -0.7100 H       1  UNL1        0.0814
     38 H         -11.6059    0.7492   -0.6287 H       1  UNL1        0.2013
     39 H         -11.5855    0.7529    1.0157 H       1  UNL1        0.2013
     40 H         -12.1899    3.0718    1.1118 H       1  UNL1        0.0814
     41 H         -12.2125    3.0911   -0.6807 H       1  UNL1        0.0814
     42 H         -13.9980    1.3423   -0.6824 H       1  UNL1        0.0332
     43 H         -13.9247    1.2523    1.0691 H       1  UNL1        0.0332
     44 H         -14.6568    3.6752    1.2133 H       1  UNL1        0.0464
     45 H         -14.7171    3.7424   -0.5595 H       1  UNL1        0.0464
     46 H         -16.8446    2.9672   -0.3629 H       1  UNL1        0.1490
     47 H         -18.4356    0.3702    3.0739 H       1  UNL1        0.0631
     48 H         -20.9721    0.1119    2.3328 H       1  UNL1        0.0634
@<TRIPOS>UNITY_ATOM_ATTR
14 1
charge 1
@<TRIPOS>BOND
     1     2     1    1
     2     3     2   ar
     3     3    27    1
     4     4     3   ar
     5     4    28    1
     6     5     4   ar
     7     6     5   ar
     8     6     2   ar
     9     7     5    1
    10     8     7    2
    11     9     7   am
    12     9    29    1
    13    10     9    1
    14    10    30    1
    15    10    31    1
    16    11    10    1
    17    11    32    1
    18    11    33    1
    19    12    11    1
    20    12    34    1
    21    12    35    1
    22    13    12    1
    23    13    36    1
    24    13    37    1
    25    14    13    1
    26    14    38    1
    27    14    39    1
    28    15    14    1
    29    15    40    1
    30    15    41    1
    31    16    15    1
    32    16    42    1
    33    16    43    1
    34    17    16    1
    35    17    44    1
    36    17    45    1
    37    18    17    1
    38    18    46    1
    39    19    18   am
    40    20    19    2
    41    21    19    1
    42    22    21   ar
    43    22    47    1
    44    23    22   ar
    45    23    48    1
    46    24    23   ar
    47    25    24    1
    48    26    24   ar
    49    26    21   ar
@<TRIPOS>MOLECULE
mol_29_akc_jejmech201308028
>29.sdf
 38 40 0 0 0
SMALL
GASTEIGER

@<TRIPOS>ATOM
      1 O           5.0940    0.7822   -1.2307 O.3     1  UNL1       -0.3910
      2 C           4.1368    0.9363   -0.1960 C.3     1  UNL1        0.0627
      3 C           4.7056    0.3980    1.0729 C.2     1  UNL1       -0.0569
      4 C           4.1639   -0.6074    1.7854 C.2     1  UNL1       -0.0380
      5 C           4.7301   -1.1287    3.0414 C.ar    1  UNL1        0.0661
      6 N           5.8202   -0.5076    3.5256 N.ar    1  UNL1       -0.2471
      7 C           6.3850   -0.9812    4.6392 C.ar    1  UNL1        0.0762
      8 C           5.9003   -2.1158    5.3371 C.ar    1  UNL1        0.0230
      9 C           6.6685   -2.5783    6.4387 C.ar    1  UNL1       -0.0296
     10 C           7.7926   -1.8892    6.8873 C.ar    1  UNL1        0.0768
     11 CL          8.6512   -2.4645    8.2626 Cl      1  UNL1       -0.0806
     12 C           8.1976   -0.7461    6.2212 C.ar    1  UNL1        0.1437
     13 F           9.2680   -0.0517    6.6332 F       1  UNL1       -0.2039
     14 C           7.5078   -0.3114    5.0975 C.ar    1  UNL1        0.0011
     15 C           4.7009   -2.7311    4.8638 C.ar    1  UNL1        0.0412
     16 C           4.1442   -2.2123    3.6832 C.ar    1  UNL1       -0.0146
     17 N           4.0651   -3.7824    5.5129 N.pl3   1  UNL1       -0.3250
     18 C           3.4050   -4.8859    4.7905 C.3     1  UNL1        0.0357
     19 C           1.9439   -5.0253    5.2467 C.3     1  UNL1        0.0634
     20 O           1.8570   -5.2006    6.6695 O.3     1  UNL1       -0.3767
     21 C           2.4063   -4.0572    7.3404 C.3     1  UNL1        0.0634
     22 C           3.8820   -3.8286    6.9763 C.3     1  UNL1        0.0357
     23 H           5.3868   -0.1445   -1.2128 H       1  UNL1        0.2098
     24 H           3.9146    2.0019   -0.0873 H       1  UNL1        0.0601
     25 H           3.2179    0.4226   -0.4948 H       1  UNL1        0.0601
     26 H           5.6152    0.8838    1.4227 H       1  UNL1        0.0595
     27 H           3.2578   -1.0892    1.4321 H       1  UNL1        0.0636
     28 H           6.4026   -3.5009    6.9416 H       1  UNL1        0.0640
     29 H           7.8617    0.5702    4.5708 H       1  UNL1        0.0668
     30 H           3.2307   -2.6298    3.2764 H       1  UNL1        0.0657
     31 H           3.9440   -5.8089    5.0360 H       1  UNL1        0.0486
     32 H           3.4475   -4.7765    3.7024 H       1  UNL1        0.0486
     33 H           1.3522   -4.1490    4.9588 H       1  UNL1        0.0575
     34 H           1.4897   -5.9047    4.7786 H       1  UNL1        0.0575
     35 H           2.3181   -4.2315    8.4176 H       1  UNL1        0.0575
     36 H           1.8019   -3.1758    7.0955 H       1  UNL1        0.0575
     37 H           4.4750   -4.6647    7.3658 H       1  UNL1        0.0486
     38 H           4.2082   -2.9072    7.4697 H       1  UNL1        0.0486
@<TRIPOS>BOND
     1     1    23    1
     2     2     1    1
     3     2    24    1
     4     2    25    1
     5     3     2    1
     6     3    26    1
     7     4     3    2
     8     4    27    1
     9     5     4    1
    10     6     5   ar
    11     7     6   ar
    12     8     7   ar
    13     9     8   ar
    14     9    28    1
    15    10     9   ar
    16    11    10    1
    17    12    10   ar
    18    13    12    1
    19    14    12   ar
    20    14     7   ar
    21    14    29    1
    22    15     8   ar
    23    16    15   ar
    24    16     5   ar
    25    16    30    1
    26    17    15    1
    27    18    17    1
    28    18    31    1
    29    18    32    1
    30    19    18    1
    31    19    33    1
    32    19    34    1
    33    20    19    1
    34    21    20    1
    35    21    35    1
    36    21    36    1
    37    22    21    1
    38    22    17    1
    39    22    37    1
    40    22    38    1
@<TRIPOS>MOLECULE
mol_2_akc_1573406414666180226163222
>2.sdf
 42 46 0 0 0
SMALL
GASTEIGER

@<TRIPOS>ATOM
      1 C           0.9938    0.2011   -0.0328 C.3     1  UNL1       -0.0396
      2 C           2.4904    0.1015   -0.0540 C.ar    1  UNL1       -0.0484
      3 C           3.2750    1.2601   -0.0660 C.ar    1  UNL1       -0.0328
      4 C           4.6642    1.2235   -0.0698 C.ar    1  UNL1        0.0725
      5 N           5.2962    2.4039   -0.0964 N.ar    1  UNL1       -0.2459
      6 C           6.6452    2.4296   -0.0900 C.ar    1  UNL1        0.0839
      7 C           7.4032    1.2578   -0.0165 C.ar    1  UNL1        0.0598
      8 C           8.8585    1.4747    0.0858 C.2     1  UNL1        0.2356
      9 O           9.6010    0.8442    0.8156 O.2     1  UNL1       -0.2831
     10 C           9.4001    2.6606   -0.7017 C.2     1  UNL1        0.2336
     11 O          10.3859    2.5647   -1.4006 O.2     1  UNL1       -0.2832
     12 C           8.6250    3.8961   -0.5342 C.ar    1  UNL1        0.0347
     13 C           7.2705    3.7701   -0.1816 C.ar    1  UNL1        0.0120
     14 C           6.5625    4.9606    0.0462 C.ar    1  UNL1       -0.0519
     15 C           7.1887    6.2097   -0.0720 C.ar    1  UNL1       -0.0611
     16 C           8.5289    6.2963   -0.4481 C.ar    1  UNL1       -0.0610
     17 C           9.2532    5.1353   -0.6924 C.ar    1  UNL1       -0.0502
     18 C           6.7777   -0.0132    0.0123 C.ar    1  UNL1        0.0043
     19 C           7.5786   -1.2769    0.1146 C.ar    1  UNL1       -0.0164
     20 C           7.2483   -2.2860    1.0421 C.ar    1  UNL1       -0.0529
     21 C           8.0039   -3.4600    1.1611 C.ar    1  UNL1       -0.0472
     22 C           9.1586   -3.6159    0.4052 C.ar    1  UNL1        0.0179
     23 BR         10.2308   -5.1556    0.6266 Br      1  UNL1       -0.0503
     24 C           9.5323   -2.6331   -0.5018 C.ar    1  UNL1       -0.0472
     25 C           8.7272   -1.4983   -0.6721 C.ar    1  UNL1       -0.0529
     26 C           5.3394   -0.0230   -0.0505 C.ar    1  UNL1        0.0088
     27 C           4.5262   -1.1879   -0.1047 C.ar    1  UNL1       -0.0517
     28 C           3.1306   -1.1293   -0.0838 C.ar    1  UNL1       -0.0581
     29 H           0.6632    0.7559    0.8510 H       1  UNL1        0.0278
     30 H           0.6361    0.7102   -0.9326 H       1  UNL1        0.0278
     31 H           0.5273   -0.7892    0.0024 H       1  UNL1        0.0278
     32 H           2.7844    2.2328   -0.0706 H       1  UNL1        0.0642
     33 H           5.5101    4.9268    0.3278 H       1  UNL1        0.0624
     34 H           6.6238    7.1173    0.1285 H       1  UNL1        0.0618
     35 H           9.0088    7.2689   -0.5412 H       1  UNL1        0.0618
     36 H          10.3026    5.1926   -0.9782 H       1  UNL1        0.0625
     37 H           6.3887   -2.1728    1.6999 H       1  UNL1        0.0624
     38 H           7.6931   -4.2295    1.8628 H       1  UNL1        0.0629
     39 H          10.4550   -2.7229   -1.0698 H       1  UNL1        0.0629
     40 H           9.0592   -0.7605   -1.4002 H       1  UNL1        0.0624
     41 H           4.9708   -2.1778   -0.1682 H       1  UNL1        0.0624
     42 H           2.5575   -2.0539   -0.0925 H       1  UNL1        0.0620
@<TRIPOS>BOND
     1     1    29    1
     2     1    30    1
     3     1    31    1
     4     2     1    1
     5     3     2   ar
     6     3    32    1
     7     4     3   ar
     8     5     4   ar
     9     6     5   ar
    10     7     6   ar
    11     8     7    1
    12     9     8    2
    13    10     8    1
    14    11    10    2
    15    12    10    1
    16    13    12   ar
    17    13     6    1
    18    14    13   ar
    19    14    33    1
    20    15    14   ar
    21    15    34    1
    22    16    15   ar
    23    16    35    1
    24    17    16   ar
    25    17    12   ar
    26    17    36    1
    27    18     7   ar
    28    19    18    1
    29    20    19   ar
    30    20    37    1
    31    21    20   ar
    32    21    38    1
    33    22    21   ar
    34    23    22    1
    35    24    22   ar
    36    24    39    1
    37    25    24   ar
    38    25    19   ar
    39    25    40    1
    40    26    18   ar
    41    26     4   ar
    42    27    26   ar
    43    27    41    1
    44    28    27   ar
    45    28     2   ar
    46    28    42    1
@<TRIPOS>MOLECULE
mol_300_akc_1568026618666181002110116
>290.sdf
 60 64 0 0 0
SMALL
GASTEIGER

@<TRIPOS>ATOM
      1 C           4.6940    1.3528    7.7500 C.3     1  UNL1       -0.0653
      2 C           4.2812    0.4068    6.6338 C.3     1  UNL1       -0.0559
      3 C           4.8764    0.8394    5.2918 C.3     1  UNL1       -0.0517
      4 C           4.4988   -0.1417    4.1794 C.3     1  UNL1       -0.0350
      5 C           5.1223    0.2008    2.8170 C.3     1  UNL1        0.0233
      6 N           6.6019    0.2823    2.8469 N.ar    1  UNL1       -0.3456
      7 C           7.2518    1.4943    2.6028 C.ar    1  UNL1        0.0228
      8 C           8.5804    1.7060    2.6168 C.ar    1  UNL1        0.1222
      9 C           9.1865    2.9923    2.2205 C.2     1  UNL1        0.3444
     10 O          10.3479    3.1035    1.8180 O.2     1  UNL1       -0.2448
     11 O           8.3225    4.0462    2.3176 O.3     1  UNL1       -0.4613
     12 C           8.9203    5.2910    1.9390 C.3     1  UNL1        0.0900
     13 C           7.8979    6.4024    2.0476 C.3     1  UNL1       -0.0306
     14 C           9.4307    0.5531    2.9905 C.ar    1  UNL1        0.2034
     15 O          10.6149    0.6659    3.2684 O.2     1  UNL1       -0.2863
     16 C           8.8026   -0.7919    3.0419 C.ar    1  UNL1        0.0480
     17 C           7.3922   -0.8915    2.9461 C.ar    1  UNL1        0.0529
     18 C           6.8684   -2.1879    2.9400 C.ar    1  UNL1       -0.0355
     19 C           7.7016   -3.3175    3.0107 C.ar    1  UNL1       -0.0342
     20 C           9.0990   -3.1956    3.1226 C.ar    1  UNL1        0.0686
     21 C           9.6514   -1.9217    3.1681 C.ar    1  UNL1       -0.0234
     22 N           9.8974   -4.3917    3.3087 N.ar    1  UNL1       -0.2084
     23 N           9.3869   -5.5863    2.8645 N.ar    1  UNL1       -0.0594
     24 N           8.9910   -6.2405    3.9549 N.ar    1  UNL1       -0.1251
     25 C           9.5278   -5.5606    5.0043 C.ar    1  UNL1        0.1639
     26 C          10.5262   -4.7060    4.5358 C.ar    1  UNL1        0.1455
     27 C          11.2460   -3.8549    5.4344 C.2     1  UNL1        0.2143
     28 O          12.4510   -3.6502    5.4181 O.2     1  UNL1       -0.2849
     29 C          10.3474   -3.2219    6.4385 C.ar    1  UNL1        0.0347
     30 C           9.0780   -3.7989    6.6464 C.ar    1  UNL1        0.0348
     31 C           8.0129   -2.9664    6.9805 C.ar    1  UNL1       -0.0502
     32 C           8.2536   -1.6054    7.2013 C.ar    1  UNL1       -0.0610
     33 C           9.5585   -1.0960    7.1859 C.ar    1  UNL1       -0.0610
     34 C          10.6223   -1.9090    6.8148 C.ar    1  UNL1       -0.0502
     35 C           8.8198   -5.2210    6.2287 C.2     1  UNL1        0.2159
     36 O           7.9784   -5.9114    6.7791 O.2     1  UNL1       -0.2849
     37 H           4.2706    1.0233    8.7039 H       1  UNL1        0.0230
     38 H           5.7834    1.3819    7.8546 H       1  UNL1        0.0230
     39 H           4.3401    2.3694    7.5525 H       1  UNL1        0.0230
     40 H           4.6200   -0.6060    6.8817 H       1  UNL1        0.0263
     41 H           3.1876    0.3760    6.5690 H       1  UNL1        0.0263
     42 H           4.5193    1.8435    5.0344 H       1  UNL1        0.0266
     43 H           5.9661    0.8946    5.3905 H       1  UNL1        0.0266
     44 H           4.7745   -1.1550    4.4858 H       1  UNL1        0.0282
     45 H           3.4091   -0.1436    4.0641 H       1  UNL1        0.0282
     46 H           4.7940   -0.5195    2.0584 H       1  UNL1        0.0492
     47 H           4.7027    1.1611    2.4932 H       1  UNL1        0.0492
     48 H           6.5696    2.3000    2.3519 H       1  UNL1        0.0818
     49 H           9.7651    5.5095    2.6036 H       1  UNL1        0.0695
     50 H           9.2787    5.2321    0.9043 H       1  UNL1        0.0695
     51 H           7.0486    6.2130    1.3827 H       1  UNL1        0.0262
     52 H           7.5030    6.4676    3.0666 H       1  UNL1        0.0262
     53 H           8.3433    7.3655    1.7804 H       1  UNL1        0.0262
     54 H           5.7996   -2.3693    2.8690 H       1  UNL1        0.0639
     55 H           7.2216   -4.2975    3.0247 H       1  UNL1        0.0639
     56 H          10.7257   -1.7734    3.2588 H       1  UNL1        0.0646
     57 H           6.9933   -3.3457    6.9657 H       1  UNL1        0.0625
     58 H           7.4183   -0.9276    7.3621 H       1  UNL1        0.0618
     59 H           9.7365   -0.0407    7.3843 H       1  UNL1        0.0618
     60 H          11.6224   -1.4939    6.6980 H       1  UNL1        0.0625
@<TRIPOS>BOND
     1     1    37    1
     2     1    38    1
     3     1    39    1
     4     2     1    1
     5     2    40    1
     6     2    41    1
     7     3     2    1
     8     3    42    1
     9     3    43    1
    10     4     3    1
    11     4    44    1
    12     4    45    1
    13     5     4    1
    14     5    46    1
    15     5    47    1
    16     6     5    1
    17     7     6   ar
    18     7    48    1
    19     8     7   ar
    20     9     8    1
    21    10     9    2
    22    11     9    1
    23    12    11    1
    24    12    49    1
    25    12    50    1
    26    13    12    1
    27    13    51    1
    28    13    52    1
    29    13    53    1
    30    14     8   ar
    31    15    14    2
    32    16    14   ar
    33    17    16   ar
    34    17     6   ar
    35    18    17   ar
    36    18    54    1
    37    19    18   ar
    38    19    55    1
    39    20    19   ar
    40    21    20   ar
    41    21    16   ar
    42    21    56    1
    43    22    20    1
    44    23    22   ar
    45    24    23   ar
    46    25    24   ar
    47    26    25   ar
    48    26    22   ar
    49    27    26    1
    50    28    27    2
    51    29    27    1
    52    30    29   ar
    53    31    30   ar
    54    31    57    1
    55    32    31   ar
    56    32    58    1
    57    33    32   ar
    58    33    59    1
    59    34    33   ar
    60    34    29   ar
    61    34    60    1
    62    35    30    1
    63    35    25    1
    64    36    35    2
@<TRIPOS>MOLECULE
mol_301_akc_0103_505320180134
>291.sdf
 51 55 0 0 0
SMALL
GASTEIGER

@<TRIPOS>ATOM
      1 O           1.0106   -0.3547   -0.0986 O.2     1  UNL1       -0.2667
      2 C           2.2127   -0.1424   -0.0105 C.2     1  UNL1        0.2840
      3 N           2.8682    1.0259   -0.3947 N.am    1  UNL1       -0.2016
      4 N           2.1289    2.0971   -0.8155 N.2     1  UNL1       -0.1874
      5 C           2.7657    3.2149   -0.9700 C.2     1  UNL1        0.0528
      6 C           2.0908    4.4445   -1.4419 C.ar    1  UNL1       -0.0055
      7 C           0.7309    4.4408   -1.7661 C.ar    1  UNL1       -0.0531
      8 C           0.1240    5.6096   -2.2349 C.ar    1  UNL1       -0.0612
      9 C           0.8723    6.7778   -2.3756 C.ar    1  UNL1       -0.0617
     10 C           2.2284    6.7849   -2.0437 C.ar    1  UNL1       -0.0612
     11 C           2.8396    5.6187   -1.5754 C.ar    1  UNL1       -0.0531
     12 C           3.1052   -1.2129    0.6269 C.ar    1  UNL1        0.1586
     13 N           2.8401   -2.4682    0.3736 N.ar    1  UNL1       -0.1578
     14 N           3.5402   -3.5096    1.0279 N.ar    1  UNL1       -0.1943
     15 C           2.9762   -4.8210    0.8135 C.ar    1  UNL1        0.0693
     16 C           3.2386   -5.9074    1.6684 C.ar    1  UNL1       -0.0361
     17 C           2.6826   -7.1713    1.4516 C.ar    1  UNL1       -0.0598
     18 C           1.8431   -7.3809    0.3665 C.ar    1  UNL1       -0.0616
     19 C           1.5553   -6.3245   -0.4917 C.ar    1  UNL1       -0.0598
     20 C           2.1091   -5.0570   -0.2661 C.ar    1  UNL1       -0.0361
     21 C           4.6389   -3.2858    1.8981 C.ar    1  UNL1        0.2981
     22 O           5.2532   -4.1669    2.4881 O.2     1  UNL1       -0.2635
     23 C           4.9676   -1.8971    2.0528 C.ar    1  UNL1        0.1429
     24 C           4.1893   -0.8940    1.5245 C.ar    1  UNL1        0.0577
     25 C           4.6668    0.2767    2.1194 C.ar    1  UNL1        0.0600
     26 N           5.7151    0.0480    2.9106 N.ar    1  UNL1       -0.1734
     27 N           5.9582   -1.2955    2.8030 N.ar    1  UNL1       -0.2267
     28 C           7.1113   -1.8516    3.4256 C.ar    1  UNL1        0.0662
     29 C           7.6428   -1.2300    4.5634 C.ar    1  UNL1       -0.0362
     30 C           8.7145   -1.8127    5.2456 C.ar    1  UNL1       -0.0598
     31 C           9.2804   -2.9986    4.7808 C.ar    1  UNL1       -0.0616
     32 C           8.7988   -3.5874    3.6161 C.ar    1  UNL1       -0.0598
     33 C           7.7284   -3.0074    2.9290 C.ar    1  UNL1       -0.0362
     34 H           3.8758    1.1173   -0.3441 H       1  UNL1        0.1776
     35 H           3.8444    3.2998   -0.7495 H       1  UNL1        0.0851
     36 H           0.1379    3.5353   -1.6596 H       1  UNL1        0.0624
     37 H          -0.9321    5.6048   -2.4913 H       1  UNL1        0.0618
     38 H           0.3995    7.6844   -2.7440 H       1  UNL1        0.0618
     39 H           2.8068    7.6991   -2.1536 H       1  UNL1        0.0618
     40 H           3.8958    5.6423   -1.3223 H       1  UNL1        0.0624
     41 H           3.8519   -5.8077    2.5587 H       1  UNL1        0.0639
     42 H           2.9034   -7.9824    2.1397 H       1  UNL1        0.0618
     43 H           1.4081   -8.3630    0.1969 H       1  UNL1        0.0618
     44 H           0.8950   -6.4820   -1.3413 H       1  UNL1        0.0618
     45 H           1.8628   -4.2590   -0.9627 H       1  UNL1        0.0639
     46 H           4.2997    1.2927    2.0416 H       1  UNL1        0.0855
     47 H           7.2018   -0.3170    4.9592 H       1  UNL1        0.0639
     48 H           9.0967   -1.3496    6.1517 H       1  UNL1        0.0618
     49 H          10.0988   -3.4642    5.3240 H       1  UNL1        0.0618
     50 H           9.2447   -4.5048    3.2408 H       1  UNL1        0.0618
     51 H           7.4093   -3.4803    2.0077 H       1  UNL1        0.0639
@<TRIPOS>BOND
     1     2     1    2
     2     3     2   am
     3     3    34    1
     4     4     3    1
     5     5     4    2
     6     5    35    1
     7     6     5    1
     8     7     6   ar
     9     7    36    1
    10     8     7   ar
    11     8    37    1
    12     9     8   ar
    13     9    38    1
    14    10     9   ar
    15    10    39    1
    16    11    10   ar
    17    11     6   ar
    18    11    40    1
    19    12     2    1
    20    13    12   ar
    21    14    13   ar
    22    15    14    1
    23    16    15   ar
    24    16    41    1
    25    17    16   ar
    26    17    42    1
    27    18    17   ar
    28    18    43    1
    29    19    18   ar
    30    19    44    1
    31    20    19   ar
    32    20    15   ar
    33    20    45    1
    34    21    14   ar
    35    22    21    2
    36    23    21   ar
    37    24    23   ar
    38    24    12   ar
    39    25    24   ar
    40    25    46    1
    41    26    25   ar
    42    27    26   ar
    43    27    23   ar
    44    28    27    1
    45    29    28   ar
    46    29    47    1
    47    30    29   ar
    48    30    48    1
    49    31    30   ar
    50    31    49    1
    51    32    31   ar
    52    32    50    1
    53    33    32   ar
    54    33    28   ar
    55    33    51    1
@<TRIPOS>MOLECULE
mol_302_akc_1573406414666180226163222
>292.sdf
 44 48 0 0 0
SMALL
GASTEIGER

@<TRIPOS>ATOM
      1 C           0.9131    0.0237    0.0373 C.3     1  UNL1       -0.0396
      2 C           2.4106   -0.0553    0.0423 C.ar    1  UNL1       -0.0484
      3 C           3.1958    1.1052    0.0064 C.ar    1  UNL1       -0.0328
      4 C           4.5892    1.0742   -0.0019 C.ar    1  UNL1        0.0725
      5 N           5.2267    2.2544   -0.0485 N.ar    1  UNL1       -0.2459
      6 C           6.5774    2.2788   -0.0618 C.ar    1  UNL1        0.0839
      7 C           7.3283    1.1076    0.0078 C.ar    1  UNL1        0.0598
      8 C           8.7893    1.3340    0.0783 C.2     1  UNL1        0.2356
      9 O           9.5433    0.7199    0.8114 O.2     1  UNL1       -0.2831
     10 C           9.3202    2.5049   -0.7257 C.2     1  UNL1        0.2336
     11 O          10.2885    2.4006   -1.4549 O.2     1  UNL1       -0.2832
     12 C           8.5608    3.7449   -0.5278 C.ar    1  UNL1        0.0347
     13 C           7.2093    3.6199   -0.1557 C.ar    1  UNL1        0.0120
     14 C           6.5164    4.8116    0.1072 C.ar    1  UNL1       -0.0519
     15 C           7.1565    6.0568    0.0162 C.ar    1  UNL1       -0.0611
     16 C           8.4957    6.1405   -0.3655 C.ar    1  UNL1       -0.0610
     17 C           9.2033    4.9806   -0.6561 C.ar    1  UNL1       -0.0502
     18 C           6.7069   -0.1665    0.0627 C.ar    1  UNL1        0.0043
     19 C           7.5073   -1.4376    0.1732 C.ar    1  UNL1       -0.0164
     20 C           7.1305   -2.4806    1.0457 C.ar    1  UNL1       -0.0518
     21 C           7.8899   -3.6484    1.1917 C.ar    1  UNL1       -0.0309
     22 C           9.1209   -3.7478    0.5453 C.ar    1  UNL1        0.1262
     23 C           9.5374   -2.7385   -0.3213 C.ar    1  UNL1       -0.0309
     24 C           8.7072   -1.6304   -0.5433 C.ar    1  UNL1       -0.0518
     25 N           9.9940   -4.8949    0.8137 N.pl3   1  UNL1        0.0564
     26 O           9.5577   -5.7886    1.5542 O.2     1  UNL1       -0.1261
     27 O          11.1165   -4.9027    0.2894 O.2     1  UNL1       -0.1261
     28 C           5.2642   -0.1725    0.0253 C.ar    1  UNL1        0.0088
     29 C           4.4456   -1.3358    0.0030 C.ar    1  UNL1       -0.0517
     30 C           3.0524   -1.2829    0.0461 C.ar    1  UNL1       -0.0581
     31 H           0.5539    0.5710    0.9140 H       1  UNL1        0.0278
     32 H           0.5663    0.5228   -0.8729 H       1  UNL1        0.0278
     33 H           0.4616   -0.9745    0.0595 H       1  UNL1        0.0278
     34 H           2.7020    2.0758   -0.0209 H       1  UNL1        0.0642
     35 H           5.4678    4.7825    0.4013 H       1  UNL1        0.0624
     36 H           6.6049    6.9656    0.2484 H       1  UNL1        0.0618
     37 H           8.9887    7.1091   -0.4254 H       1  UNL1        0.0618
     38 H          10.2510    5.0337   -0.9445 H       1  UNL1        0.0625
     39 H           6.2306   -2.4025    1.6537 H       1  UNL1        0.0624
     40 H           7.5240   -4.4410    1.8412 H       1  UNL1        0.0640
     41 H          10.5089   -2.7741   -0.8109 H       1  UNL1        0.0640
     42 H           9.0733   -0.8791   -1.2413 H       1  UNL1        0.0624
     43 H           4.8778   -2.3301   -0.0608 H       1  UNL1        0.0624
     44 H           2.4834   -2.2103    0.0683 H       1  UNL1        0.0620
@<TRIPOS>BOND
     1     1    31    1
     2     1    32    1
     3     1    33    1
     4     2     1    1
     5     3     2   ar
     6     3    34    1
     7     4     3   ar
     8     5     4   ar
     9     6     5   ar
    10     7     6   ar
    11     8     7    1
    12     9     8    2
    13    10     8    1
    14    11    10    2
    15    12    10    1
    16    13    12   ar
    17    13     6    1
    18    14    13   ar
    19    14    35    1
    20    15    14   ar
    21    15    36    1
    22    16    15   ar
    23    16    37    1
    24    17    16   ar
    25    17    12   ar
    26    17    38    1
    27    18     7   ar
    28    19    18    1
    29    20    19   ar
    30    20    39    1
    31    21    20   ar
    32    21    40    1
    33    22    21   ar
    34    23    22   ar
    35    23    41    1
    36    24    23   ar
    37    24    19   ar
    38    24    42    1
    39    25    22    1
    40    26    25    2
    41    27    25    2
    42    28    18   ar
    43    28     4   ar
    44    29    28   ar
    45    29    43    1
    46    30    29   ar
    47    30     2   ar
    48    30    44    1
@<TRIPOS>MOLECULE
mol_303_akc_1568026618666180516125056
>293.sdf
 56 56 0 0 0
SMALL
GASTEIGER

@<TRIPOS>ATOM
      1 O           1.0024    0.1228   -0.0749 O.3     1  UNL1       -0.4806
      2 C           2.3446    0.0312    0.0364 C.2     1  UNL1        0.3047
      3 O           2.8793   -0.6629    0.8799 O.2     1  UNL1       -0.2510
      4 C           3.0724    0.8761   -0.9894 C.3     1  UNL1        0.0448
      5 C           4.5861    0.7394   -0.8240 C.3     1  UNL1       -0.0421
      6 C           5.3654    1.5748   -1.8359 C.3     1  UNL1       -0.0417
      7 C           6.8713    1.4020   -1.6298 C.3     1  UNL1        0.0091
      8 C           7.6312    2.2417   -2.6436 C.1     1  UNL1       -0.1022
      9 C           8.2831    2.9620   -3.5133 C.1     1  UNL1       -0.1022
     10 C           9.0431    3.8017   -4.5270 C.3     1  UNL1        0.0091
     11 C          10.5021    3.8695   -4.1291 C.3     1  UNL1       -0.0422
     12 C          11.2677    4.7063   -5.1366 C.3     1  UNL1       -0.0522
     13 C          12.7321    4.7821   -4.7462 C.3     1  UNL1       -0.0530
     14 C          13.4905    5.6226   -5.7578 C.3     1  UNL1       -0.0531
     15 C          14.9570    5.7016   -5.3755 C.3     1  UNL1       -0.0530
     16 C          15.7167    6.5429   -6.3887 C.3     1  UNL1       -0.0528
     17 C          17.1856    6.6137   -5.9998 C.3     1  UNL1       -0.0491
     18 C          17.9676    7.4565   -6.9967 C.3     1  UNL1       -0.0277
     19 C          19.4229    7.5340   -6.6246 C.ar    1  UNL1       -0.0474
     20 C          20.3224    6.5658   -7.0876 C.ar    1  UNL1       -0.0586
     21 C          21.6820    6.6771   -6.8015 C.ar    1  UNL1       -0.0615
     22 C          22.1512    7.7556   -6.0533 C.ar    1  UNL1       -0.0617
     23 C          21.2578    8.7033   -5.5578 C.ar    1  UNL1       -0.0615
     24 C          19.8943    8.5814   -5.8236 C.ar    1  UNL1       -0.0586
     25 H           2.7742    0.5440   -1.9903 H       1  UNL1        0.0377
     26 H           2.7746    1.9222   -0.8548 H       1  UNL1        0.0377
     27 H           4.8699    1.0428    0.1911 H       1  UNL1        0.0271
     28 H           4.8698   -0.3149   -0.9295 H       1  UNL1        0.0271
     29 H           5.0924    1.2765   -2.8562 H       1  UNL1        0.0274
     30 H           5.0946    2.6335   -1.7340 H       1  UNL1        0.0274
     31 H           7.1605    1.7165   -0.6209 H       1  UNL1        0.0397
     32 H           7.1587    0.3518   -1.7526 H       1  UNL1        0.0397
     33 H           8.9270    3.3483   -5.5179 H       1  UNL1        0.0397
     34 H           8.5981    4.8026   -4.5597 H       1  UNL1        0.0397
     35 H          10.5993    4.3043   -3.1260 H       1  UNL1        0.0274
     36 H          10.9264    2.8585   -4.0785 H       1  UNL1        0.0274
     37 H          11.1706    4.2665   -6.1369 H       1  UNL1        0.0266
     38 H          10.8411    5.7160   -5.1838 H       1  UNL1        0.0266
     39 H          12.8301    5.2208   -3.7455 H       1  UNL1        0.0265
     40 H          13.1594    3.7728   -4.7016 H       1  UNL1        0.0265
     41 H          13.3892    5.1830   -6.7577 H       1  UNL1        0.0265
     42 H          13.0614    6.6312   -5.8012 H       1  UNL1        0.0265
     43 H          15.0584    6.1385   -4.3743 H       1  UNL1        0.0265
     44 H          15.3842    4.6920   -5.3322 H       1  UNL1        0.0265
     45 H          15.6143    6.1022   -7.3881 H       1  UNL1        0.0265
     46 H          15.2877    7.5517   -6.4325 H       1  UNL1        0.0265
     47 H          17.2789    7.0424   -4.9944 H       1  UNL1        0.0268
     48 H          17.5970    5.5978   -5.9531 H       1  UNL1        0.0268
     49 H          17.8735    7.0453   -8.0098 H       1  UNL1        0.0313
     50 H          17.5463    8.4686   -7.0435 H       1  UNL1        0.0313
     51 H          19.9699    5.7312   -7.6898 H       1  UNL1        0.0620
     52 H          22.3776    5.9333   -7.1801 H       1  UNL1        0.0618
     53 H          23.2148    7.8604   -5.8596 H       1  UNL1        0.0618
     54 H          21.6217    9.5481   -4.9805 H       1  UNL1        0.0618
     55 H          19.2051    9.3209   -5.4217 H       1  UNL1        0.0620
     56 H           0.6972    0.7116   -0.7905 H       1  UNL1        0.2951
@<TRIPOS>BOND
     1     2     1    1
     2     3     2    2
     3     4     2    1
     4     4    25    1
     5     4    26    1
     6     5     4    1
     7     5    27    1
     8     5    28    1
     9     6     5    1
    10     6    29    1
    11     6    30    1
    12     7     6    1
    13     7    31    1
    14     7    32    1
    15     8     7    1
    16     9     8    3
    17    10     9    1
    18    10    33    1
    19    10    34    1
    20    11    10    1
    21    11    35    1
    22    11    36    1
    23    12    11    1
    24    12    37    1
    25    12    38    1
    26    13    12    1
    27    13    39    1
    28    13    40    1
    29    14    13    1
    30    14    41    1
    31    14    42    1
    32    15    14    1
    33    15    43    1
    34    15    44    1
    35    16    15    1
    36    16    45    1
    37    16    46    1
    38    17    16    1
    39    17    47    1
    40    17    48    1
    41    18    17    1
    42    18    49    1
    43    18    50    1
    44    19    18    1
    45    20    19   ar
    46    20    51    1
    47    21    20   ar
    48    21    52    1
    49    22    21   ar
    50    22    53    1
    51    23    22   ar
    52    23    54    1
    53    24    23   ar
    54    24    19   ar
    55    24    55    1
    56     1    56    1
@<TRIPOS>MOLECULE
mol_304_akc_molecules23010070
>294.sdf
 45 48 0 0 0
SMALL
GASTEIGER

@<TRIPOS>ATOM
      1 N          -1.0405    1.5081   -0.3416 N.am    1  UNL1       -0.2680
      2 C           0.1893    1.0942   -0.8594 C.2     1  UNL1        0.3234
      3 O           0.4350   -0.0010   -1.3389 O.2     1  UNL1       -0.2507
      4 N           1.1237    2.1166   -0.6412 N.am    1  UNL1       -0.1903
      5 N           2.4846    2.0254   -0.7668 N.2     1  UNL1       -0.1830
      6 C           3.1933    1.0700   -0.2247 C.2     1  UNL1        0.0689
      7 C           2.6114   -0.0940    0.5582 C.3     1  UNL1        0.0079
      8 C           3.4643   -0.6315    1.6992 C.3     1  UNL1        0.0403
      9 S           5.0727   -1.2231    1.0942 S.3     1  UNL1       -0.1161
     10 C           2.3654   -2.9389    1.7609 C.ar    1  UNL1       -0.0575
     11 C           2.7194   -1.7473    2.4239 C.ar    1  UNL1       -0.0338
     12 C           2.3239   -1.5835    3.7567 C.ar    1  UNL1       -0.0575
     13 C           1.5855   -2.5809    4.4072 C.ar    1  UNL1       -0.0615
     14 C           1.2411   -3.7504    3.7339 C.ar    1  UNL1       -0.0617
     15 C           1.6332   -3.9315    2.4107 C.ar    1  UNL1       -0.0615
     16 C           5.5714    0.2029    0.1610 C.ar    1  UNL1        0.0174
     17 C           6.9573    0.3577   -0.0225 C.ar    1  UNL1       -0.0477
     18 C           7.4734    1.4397   -0.7330 C.ar    1  UNL1       -0.0607
     19 C           6.6072    2.3760   -1.2801 C.ar    1  UNL1       -0.0611
     20 C           5.2280    2.2293   -1.1115 C.ar    1  UNL1       -0.0518
     21 C           4.6917    1.1454   -0.3896 C.ar    1  UNL1        0.0112
     22 C          -2.1706    0.6910   -0.1285 C.ar    1  UNL1        0.0377
     23 C          -3.5164   -1.2453   -0.4625 C.ar    1  UNL1        0.0293
     24 N          -4.3736   -0.9106    0.5268 N.ar    1  UNL1       -0.2631
     25 C          -4.1267    0.2462    1.1716 C.ar    1  UNL1        0.0293
     26 C          -3.0649    1.0830    0.8692 C.ar    1  UNL1       -0.0223
     27 C          -2.4137   -0.4867   -0.8244 C.ar    1  UNL1       -0.0223
     28 H          -0.9891    2.3504    0.2124 H       1  UNL1        0.1564
     29 H           0.7843    3.0163   -0.9661 H       1  UNL1        0.1788
     30 H           2.3838   -0.8829   -0.1680 H       1  UNL1        0.0343
     31 H           1.6659    0.2276    1.0096 H       1  UNL1        0.0343
     32 H           3.6739    0.1813    2.4057 H       1  UNL1        0.0468
     33 H           2.6535   -3.1010    0.7237 H       1  UNL1        0.0621
     34 H           2.5720   -0.6760    4.3008 H       1  UNL1        0.0621
     35 H           1.2760   -2.4378    5.4379 H       1  UNL1        0.0618
     36 H           0.6616   -4.5194    4.2385 H       1  UNL1        0.0618
     37 H           1.3651   -4.8408    1.8803 H       1  UNL1        0.0618
     38 H           7.6523   -0.3675    0.3994 H       1  UNL1        0.0629
     39 H           8.5492    1.5465   -0.8580 H       1  UNL1        0.0618
     40 H           7.0006    3.2223   -1.8391 H       1  UNL1        0.0618
     41 H           4.5734    2.9786   -1.5528 H       1  UNL1        0.0624
     42 H          -3.7422   -2.1775   -0.9725 H       1  UNL1        0.0830
     43 H          -4.8175    0.4857    1.9751 H       1  UNL1        0.0830
     44 H          -2.9256    1.9921    1.4422 H       1  UNL1        0.0651
     45 H          -1.7784   -0.8254   -1.6342 H       1  UNL1        0.0651
@<TRIPOS>BOND
     1     1     2   am
     2     2     3    2
     3     2     4   am
     4     4     5    1
     5     5     6    2
     6     6     7    1
     7     7     8    1
     8     8     9    1
     9    10    11   ar
    10    11    12   ar
    11    12    13   ar
    12    13    14   ar
    13    14    15   ar
    14    10    15   ar
    15     9    16    1
    16    16    17   ar
    17    17    18   ar
    18    18    19   ar
    19    19    20   ar
    20    20    21   ar
    21     6    21    1
    22    16    21   ar
    23     1    22    1
    24    23    24   ar
    25    24    25   ar
    26    25    26   ar
    27    23    27   ar
    28    26    22   ar
    29    22    27   ar
    30     1    28    1
    31     4    29    1
    32     7    30    1
    33     7    31    1
    34    10    33    1
    35    12    34    1
    36    13    35    1
    37    14    36    1
    38    15    37    1
    39    17    38    1
    40    18    39    1
    41    19    40    1
    42    20    41    1
    43    23    42    1
    44    25    43    1
    45    26    44    1
    46    27    45    1
    47     8    32    1
    48     8    11    1
@<TRIPOS>MOLECULE
mol_305_akc_molecules23010070
>295.sdf
 45 48 0 0 0
SMALL
GASTEIGER

@<TRIPOS>ATOM
      1 N           0.4680   -3.3724    2.8283 N.am    1  UNL1       -0.2680
      2 C           0.0491   -2.5332    1.8347 C.2     1  UNL1        0.3234
      3 O          -1.1123   -2.2975    1.5111 O.2     1  UNL1       -0.2507
      4 N           1.0274   -1.8358    1.1776 N.am    1  UNL1       -0.1903
      5 N           2.3797   -1.9240    1.3383 N.2     1  UNL1       -0.1830
      6 C           3.1312   -1.1367    0.6005 C.2     1  UNL1        0.0689
      7 C           2.5864   -0.0835   -0.3766 C.3     1  UNL1        0.0079
      8 C           3.3405   -0.0343   -1.7051 C.3     1  UNL1        0.0403
      9 S           4.9646    0.6869   -1.3647 S.3     1  UNL1       -0.1161
     10 C           2.0257   -1.8745   -2.8137 C.ar    1  UNL1       -0.0575
     11 C           3.2884   -1.3649   -2.4501 C.ar    1  UNL1       -0.0338
     12 C           4.4145   -2.1449   -2.7567 C.ar    1  UNL1       -0.0575
     13 C           4.2785   -3.4133   -3.3290 C.ar    1  UNL1       -0.0615
     14 C           3.0166   -3.9184   -3.6243 C.ar    1  UNL1       -0.0617
     15 C           1.8896   -3.1421   -3.3820 C.ar    1  UNL1       -0.0615
     16 C           5.4918   -0.3948   -0.0446 C.ar    1  UNL1        0.0174
     17 C           6.8820   -0.4588    0.1510 C.ar    1  UNL1       -0.0477
     18 C           7.4278   -1.3224    1.0947 C.ar    1  UNL1       -0.0607
     19 C           6.5866   -2.1282    1.8582 C.ar    1  UNL1       -0.0611
     20 C           5.2013   -2.0591    1.6871 C.ar    1  UNL1       -0.0518
     21 C           4.6344   -1.1917    0.7416 C.ar    1  UNL1        0.0112
     22 C          -0.3730   -4.0240    3.7624 C.ar    1  UNL1        0.0377
     23 C          -0.6295   -5.1294    5.8691 C.ar    1  UNL1        0.0293
     24 N          -1.9740   -5.1732    5.7733 N.ar    1  UNL1       -0.2631
     25 C          -2.5106   -4.6625    4.6481 C.ar    1  UNL1        0.0293
     26 C          -1.7616   -4.0938    3.6287 C.ar    1  UNL1       -0.0223
     27 C           0.2046   -4.5852    4.8986 C.ar    1  UNL1       -0.0223
     28 H           1.4710   -3.3690    2.9646 H       1  UNL1        0.1564
     29 H           0.6108   -1.1861    0.5289 H       1  UNL1        0.1788
     30 H           2.6004    0.8842    0.1412 H       1  UNL1        0.0343
     31 H           1.5413   -0.2547   -0.6261 H       1  UNL1        0.0343
     32 H           2.8429    0.7001   -2.3528 H       1  UNL1        0.0468
     33 H           1.1221   -1.2942   -2.6376 H       1  UNL1        0.0621
     34 H           5.4232   -1.8020   -2.5431 H       1  UNL1        0.0621
     35 H           5.1633   -4.0117   -3.5307 H       1  UNL1        0.0618
     36 H           2.9125   -4.9141   -4.0463 H       1  UNL1        0.0618
     37 H           0.9013   -3.5269   -3.6201 H       1  UNL1        0.0618
     38 H           7.5533    0.1548   -0.4494 H       1  UNL1        0.0629
     39 H           8.5066   -1.3716    1.2243 H       1  UNL1        0.0618
     40 H           7.0150   -2.8107    2.5872 H       1  UNL1        0.0618
     41 H           4.5657   -2.6988    2.2985 H       1  UNL1        0.0624
     42 H          -0.2231   -5.5416    6.7880 H       1  UNL1        0.0830
     43 H          -3.5934   -4.7089    4.5819 H       1  UNL1        0.0830
     44 H          -2.2893   -3.7201    2.7600 H       1  UNL1        0.0651
     45 H           1.2763   -4.5749    5.0593 H       1  UNL1        0.0651
@<TRIPOS>BOND
     1     1     2   am
     2     2     3    2
     3     2     4   am
     4     4     5    1
     5     5     6    2
     6     6     7    1
     7     7     8    1
     8     8     9    1
     9    10    11   ar
    10    11    12   ar
    11    12    13   ar
    12    13    14   ar
    13    14    15   ar
    14    10    15   ar
    15     9    16    1
    16    16    17   ar
    17    17    18   ar
    18    18    19   ar
    19    19    20   ar
    20    20    21   ar
    21     6    21    1
    22    16    21   ar
    23     8    11    1
    24     1    22    1
    25    23    24   ar
    26    24    25   ar
    27    25    26   ar
    28    23    27   ar
    29    26    22   ar
    30    22    27   ar
    31     1    28    1
    32     4    29    1
    33     7    30    1
    34     7    31    1
    35     8    32    1
    36    10    33    1
    37    12    34    1
    38    13    35    1
    39    14    36    1
    40    15    37    1
    41    17    38    1
    42    18    39    1
    43    19    40    1
    44    20    41    1
    45    23    42    1
    46    25    43    1
    47    26    44    1
    48    27    45    1
@<TRIPOS>MOLECULE
mol_306_akc_jexppara201711009
>296.sdf
 37 39 0 0 0
SMALL
GASTEIGER

@<TRIPOS>ATOM
      1 C           1.1415   -0.8578    7.0273 C.3     1  UNL1        0.0788
      2 O           1.1101   -0.6683    5.6186 O.3     1  UNL1       -0.4948
      3 C           0.4583    0.4400    5.1423 C.ar    1  UNL1        0.1247
      4 C           0.1663    0.4291    3.7568 C.ar    1  UNL1        0.0113
      5 C           0.6441   -0.7691    2.9524 C.3     1  UNL1        0.0404
      6 N           0.2832   -0.7730    1.5294 N.pl3   1  UNL1       -0.3106
      7 C           0.9941   -1.6568    0.7805 C.ar    1  UNL1        0.1966
      8 N           1.7804   -2.6113    1.2194 N.ar    1  UNL1       -0.2144
      9 C           2.5049   -3.0209    0.1338 C.ar    1  UNL1        0.0909
     10 C           3.5685   -3.9319    0.0724 C.ar    1  UNL1       -0.0342
     11 C           4.2137   -4.1281   -1.1526 C.ar    1  UNL1       -0.0596
     12 C           3.7922   -3.4488   -2.2975 C.ar    1  UNL1       -0.0597
     13 C           2.7095   -2.5604   -2.2620 C.ar    1  UNL1       -0.0360
     14 C           2.0907   -2.3647   -1.0213 C.ar    1  UNL1        0.0698
     15 N           1.0478   -1.5760   -0.5928 N.ar    1  UNL1       -0.3149
     16 C           0.1789   -0.7862   -1.4277 C.3     1  UNL1        0.0150
     17 C          -0.4952    1.5387    3.2056 C.ar    1  UNL1       -0.0536
     18 C          -0.8304    2.6391    3.9990 C.ar    1  UNL1       -0.0612
     19 C          -0.5178    2.6444    5.3546 C.ar    1  UNL1       -0.0583
     20 C           0.1191    1.5460    5.9276 C.ar    1  UNL1       -0.0196
     21 H           1.8067   -0.1295    7.5020 H       1  UNL1        0.0660
     22 H           0.1355   -0.8171    7.4584 H       1  UNL1        0.0660
     23 H           1.5475   -1.8550    7.2209 H       1  UNL1        0.0660
     24 H           1.7393   -0.7806    3.0439 H       1  UNL1        0.0513
     25 H           0.2418   -1.6820    3.4097 H       1  UNL1        0.0513
     26 H           0.2137    0.1560    1.1397 H       1  UNL1        0.1492
     27 H           3.8964   -4.4430    0.9713 H       1  UNL1        0.0639
     28 H           5.0588   -4.8099   -1.2075 H       1  UNL1        0.0618
     29 H           4.3201   -3.6073   -3.2353 H       1  UNL1        0.0618
     30 H           2.3928   -2.0321   -3.1540 H       1  UNL1        0.0639
     31 H          -0.8471   -0.8777   -1.0589 H       1  UNL1        0.0457
     32 H           0.5099    0.2534   -1.3888 H       1  UNL1        0.0457
     33 H           0.2150   -1.1568   -2.4553 H       1  UNL1        0.0457
     34 H          -0.7625    1.5783    2.1548 H       1  UNL1        0.0622
     35 H          -1.3270    3.4970    3.5546 H       1  UNL1        0.0618
     36 H          -0.7690    3.5074    5.9670 H       1  UNL1        0.0619
     37 H           0.3554    1.5873    6.9883 H       1  UNL1        0.0654
@<TRIPOS>BOND
     1     1    21    1
     2     1    22    1
     3     1    23    1
     4     2     1    1
     5     3     2    1
     6     4     3   ar
     7     5     4    1
     8     5    24    1
     9     5    25    1
    10     6     5    1
    11     6    26    1
    12     7     6    1
    13     8     7   ar
    14     9     8   ar
    15    10     9   ar
    16    10    27    1
    17    11    10   ar
    18    11    28    1
    19    12    11   ar
    20    12    29    1
    21    13    12   ar
    22    13    30    1
    23    14    13   ar
    24    14     9   ar
    25    15    14   ar
    26    15     7   ar
    27    16    15    1
    28    16    31    1
    29    16    32    1
    30    16    33    1
    31    17     4   ar
    32    17    34    1
    33    18    17   ar
    34    18    35    1
    35    19    18   ar
    36    19    36    1
    37    20    19   ar
    38    20     3   ar
    39    20    37    1
@<TRIPOS>MOLECULE
mol_307_akc_s00044_017_2019_2
>297.sdf
 46 48 0 0 0
SMALL
GASTEIGER

@<TRIPOS>ATOM
      1 O          -7.0827    5.6438   -9.1670 O.3     1  UNL1       -0.5033
      2 C          -7.3914    5.2186   -7.9036 C.ar    1  UNL1        0.1582
      3 C          -8.4461    5.8503   -7.2491 C.ar    1  UNL1        0.1588
      4 O          -9.1263    6.8570   -7.8732 O.3     1  UNL1       -0.5033
      5 C          -8.8226    5.4742   -5.9632 C.ar    1  UNL1       -0.0079
      6 C          -8.1214    4.4435   -5.3335 C.ar    1  UNL1       -0.0018
      7 C          -8.5149    4.0311   -3.9671 C.2     1  UNL1        0.0529
      8 N          -7.8773    3.0921   -3.3445 N.2     1  UNL1       -0.1876
      9 N          -8.3107    2.7772   -2.0900 N.am    1  UNL1       -0.2042
     10 C          -7.6111    1.8269   -1.3542 C.2     1  UNL1        0.2698
     11 O          -6.6370    1.1979   -1.7672 O.2     1  UNL1       -0.2703
     12 C          -8.1276    1.6483    0.0825 C.3     1  UNL1        0.1670
     13 O          -9.2141    0.7545    0.2740 O.3     1  UNL1       -0.4790
     14 C          -8.9889   -0.5931    0.1396 C.ar    1  UNL1        0.1646
     15 C          -7.7276   -1.1823   -0.0026 C.ar    1  UNL1        0.0021
     16 C          -7.6096   -2.5600   -0.2028 C.ar    1  UNL1        0.0447
     17 CL         -6.0496   -3.2764   -0.3311 Cl      1  UNL1       -0.0834
     18 C          -8.7393   -3.3635   -0.3025 C.ar    1  UNL1       -0.0397
     19 C          -9.9989   -2.7934   -0.1439 C.ar    1  UNL1       -0.0143
     20 C         -10.1241   -1.4266    0.1525 C.ar    1  UNL1        0.1700
     21 O         -11.3515   -0.8530    0.4418 O.3     1  UNL1       -0.4509
     22 C         -12.2804   -1.6083    1.1358 C.ar    1  UNL1        0.1469
     23 C         -13.6256   -1.5338    0.7517 C.ar    1  UNL1        0.0845
     24 CL        -14.1411   -0.4802   -0.5151 Cl      1  UNL1       -0.0797
     25 C         -14.5856   -2.3319    1.3807 C.ar    1  UNL1       -0.0215
     26 C         -14.2007   -3.1974    2.4027 C.ar    1  UNL1        0.0426
     27 CL        -15.3682   -4.2235    3.1404 Cl      1  UNL1       -0.0835
     28 C         -12.8761   -3.2407    2.8324 C.ar    1  UNL1       -0.0398
     29 C         -11.9214   -2.4263    2.2187 C.ar    1  UNL1       -0.0165
     30 C          -7.0571    3.8057   -5.9908 C.ar    1  UNL1       -0.0494
     31 C          -6.6882    4.1940   -7.2834 C.ar    1  UNL1       -0.0159
     32 H          -6.3381    5.1091   -9.4941 H       1  UNL1        0.2923
     33 H          -8.6930    6.9410   -8.7469 H       1  UNL1        0.2923
     34 H          -9.6482    5.9841   -5.4780 H       1  UNL1        0.0662
     35 H          -9.3675    4.5631   -3.5075 H       1  UNL1        0.0851
     36 H          -9.1302    3.2371   -1.7100 H       1  UNL1        0.1773
     37 H          -7.2866    1.4076    0.7446 H       1  UNL1        0.0795
     38 H          -8.4706    2.6320    0.4274 H       1  UNL1        0.0795
     39 H          -6.8128   -0.6001    0.0334 H       1  UNL1        0.0670
     40 H          -8.6472   -4.4298   -0.4891 H       1  UNL1        0.0633
     41 H         -10.8755   -3.4300   -0.2295 H       1  UNL1        0.0656
     42 H         -15.6254   -2.2877    1.0680 H       1  UNL1        0.0648
     43 H         -12.5779   -3.9106    3.6357 H       1  UNL1        0.0633
     44 H         -10.8936   -2.4617    2.5725 H       1  UNL1        0.0655
     45 H          -6.5123    3.0009   -5.4976 H       1  UNL1        0.0625
     46 H          -5.8642    3.6889   -7.7740 H       1  UNL1        0.0655
@<TRIPOS>BOND
     1     1    32    1
     2     2     1    1
     3     3     2   ar
     4     4     3    1
     5     4    33    1
     6     5     3   ar
     7     5    34    1
     8     6     5   ar
     9     7     6    1
    10     7    35    1
    11     8     7    2
    12     9     8    1
    13     9    36    1
    14    10     9   am
    15    11    10    2
    16    12    10    1
    17    12    37    1
    18    12    38    1
    19    13    12    1
    20    14    13    1
    21    15    14   ar
    22    15    39    1
    23    16    15   ar
    24    17    16    1
    25    18    16   ar
    26    18    40    1
    27    19    18   ar
    28    19    41    1
    29    20    19   ar
    30    20    14   ar
    31    21    20    1
    32    22    21    1
    33    23    22   ar
    34    24    23    1
    35    25    23   ar
    36    25    42    1
    37    26    25   ar
    38    27    26    1
    39    28    26   ar
    40    28    43    1
    41    29    28   ar
    42    29    22   ar
    43    29    44    1
    44    30     6   ar
    45    30    45    1
    46    31    30   ar
    47    31     2   ar
    48    31    46    1
@<TRIPOS>MOLECULE
mol_308_akc_cbdd13024
>298.sdf
 34 35 0 0 0
SMALL
GASTEIGER

@<TRIPOS>ATOM
      1 O           1.0544    0.0572    0.0676 O.3     1  UNL1       -0.3850
      2 C           2.4900    0.0395    0.0558 C.3     1  UNL1        0.1229
      3 C           2.9570   -1.3693    0.4363 C.3     1  UNL1        0.1186
      4 O           4.3814   -1.4426    0.4621 O.3     1  UNL1       -0.4892
      5 C           4.9194   -2.6668    0.7603 C.ar    1  UNL1        0.1220
      6 C           4.1952   -3.8235    1.0551 C.ar    1  UNL1       -0.0016
      7 C           4.8684   -5.0105    1.3467 C.ar    1  UNL1        0.0444
      8 CL          3.9638   -6.4303    1.7085 Cl      1  UNL1       -0.0834
      9 C           6.2600   -5.0581    1.3489 C.ar    1  UNL1       -0.0432
     10 C           6.9868   -3.9062    1.0547 C.ar    1  UNL1       -0.0569
     11 C           6.3165   -2.7156    0.7609 C.ar    1  UNL1       -0.0198
     12 C           3.0401    0.4556   -1.3179 C.3     1  UNL1        0.1186
     13 O           2.6393    1.7996   -1.6060 O.3     1  UNL1       -0.4892
     14 C           3.0326    2.3122   -2.8127 C.ar    1  UNL1        0.1220
     15 C           3.8377    1.6662   -3.7506 C.ar    1  UNL1       -0.0016
     16 C           4.1605    2.3091   -4.9491 C.ar    1  UNL1        0.0444
     17 CL          5.1523    1.5027   -6.1030 Cl      1  UNL1       -0.0834
     18 C           3.6869    3.5890   -5.2186 C.ar    1  UNL1       -0.0432
     19 C           2.8871    4.2393   -4.2845 C.ar    1  UNL1       -0.0569
     20 C           2.5625    3.6007   -3.0843 C.ar    1  UNL1       -0.0198
     21 H           0.7340   -0.4927   -0.6678 H       1  UNL1        0.2101
     22 H           2.8252    0.7638    0.8066 H       1  UNL1        0.0661
     23 H           2.5444   -1.6188    1.4220 H       1  UNL1        0.0724
     24 H           2.5548   -2.0805   -0.2976 H       1  UNL1        0.0724
     25 H           3.1110   -3.8322    1.0693 H       1  UNL1        0.0669
     26 H           6.7795   -5.9839    1.5793 H       1  UNL1        0.0632
     27 H           8.0735   -3.9331    1.0556 H       1  UNL1        0.0619
     28 H           6.8902   -1.8192    0.5345 H       1  UNL1        0.0654
     29 H           4.1346    0.3998   -1.3058 H       1  UNL1        0.0724
     30 H           2.6311   -0.2120   -2.0864 H       1  UNL1        0.0724
     31 H           4.2316    0.6717   -3.5785 H       1  UNL1        0.0669
     32 H           3.9397    4.0875   -6.1531 H       1  UNL1        0.0632
     33 H           2.5132    5.2419   -4.4834 H       1  UNL1        0.0619
     34 H           1.9360    4.1098   -2.3554 H       1  UNL1        0.0654
@<TRIPOS>BOND
     1     1    21    1
     2     2     1    1
     3     2    22    1
     4     3     2    1
     5     3    23    1
     6     3    24    1
     7     4     3    1
     8     5     4    1
     9     6     5   ar
    10     6    25    1
    11     7     6   ar
    12     8     7    1
    13     9     7   ar
    14     9    26    1
    15    10     9   ar
    16    10    27    1
    17    11    10   ar
    18    11     5   ar
    19    11    28    1
    20    12     2    1
    21    12    29    1
    22    12    30    1
    23    13    12    1
    24    14    13    1
    25    15    14   ar
    26    15    31    1
    27    16    15   ar
    28    17    16    1
    29    18    16   ar
    30    18    32    1
    31    19    18   ar
    32    19    33    1
    33    20    19   ar
    34    20    14   ar
    35    20    34    1
@<TRIPOS>MOLECULE
mol_309_akc_cbdd13024
>299.sdf
 34 35 0 0 0
SMALL
GASTEIGER

@<TRIPOS>ATOM
      1 O           1.0593   -0.0177    0.0145 O.3     1  UNL1       -0.3850
      2 C           2.4948   -0.0089    0.0517 C.3     1  UNL1        0.1229
      3 C           3.0122    1.2996   -0.5682 C.3     1  UNL1        0.1187
      4 O           2.5776    2.4061    0.2368 O.3     1  UNL1       -0.4878
      5 C           2.3246    3.5852   -0.4143 C.ar    1  UNL1        0.1389
      6 C           3.0465    4.1627   -1.4696 C.ar    1  UNL1        0.0825
      7 CL          4.5089    3.5096   -2.1164 Cl      1  UNL1       -0.0798
      8 C           2.6264    5.3832   -2.0176 C.ar    1  UNL1       -0.0398
      9 C           1.5156    6.0512   -1.5026 C.ar    1  UNL1       -0.0602
     10 C           0.8252    5.5084   -0.4252 C.ar    1  UNL1       -0.0582
     11 C           1.2310    4.2867    0.1172 C.ar    1  UNL1       -0.0185
     12 C           2.9533   -0.2058    1.5010 C.3     1  UNL1        0.1187
     13 O           4.3793   -0.2117    1.5732 O.3     1  UNL1       -0.4878
     14 C           4.9199   -0.3468    2.8289 C.ar    1  UNL1        0.1389
     15 C           6.1674   -0.9752    2.9438 C.ar    1  UNL1        0.0825
     16 CL          6.9871   -1.6104    1.5595 Cl      1  UNL1       -0.0798
     17 C           6.7830   -1.1190    4.1921 C.ar    1  UNL1       -0.0398
     18 C           6.1614   -0.6193    5.3368 C.ar    1  UNL1       -0.0602
     19 C           4.9334    0.0253    5.2307 C.ar    1  UNL1       -0.0582
     20 C           4.3168    0.1670    3.9835 C.ar    1  UNL1       -0.0185
     21 H           0.7696    0.8459    0.3644 H       1  UNL1        0.2101
     22 H           2.8470   -0.8457   -0.5618 H       1  UNL1        0.0662
     23 H           4.1057    1.2803   -0.5919 H       1  UNL1        0.0724
     24 H           2.6048    1.3786   -1.5838 H       1  UNL1        0.0724
     25 H           3.1778    5.8307   -2.8416 H       1  UNL1        0.0633
     26 H           1.2043    7.0002   -1.9318 H       1  UNL1        0.0618
     27 H          -0.0269    6.0355   -0.0030 H       1  UNL1        0.0619
     28 H           0.6858    3.8765    0.9637 H       1  UNL1        0.0654
     29 H           2.5165    0.5958    2.1054 H       1  UNL1        0.0724
     30 H           2.5616   -1.1599    1.8765 H       1  UNL1        0.0724
     31 H           7.7453   -1.6129    4.2780 H       1  UNL1        0.0633
     32 H           6.6390   -0.7256    6.3084 H       1  UNL1        0.0618
     33 H           4.4535    0.4323    6.1168 H       1  UNL1        0.0619
     34 H           3.3784    0.7090    3.9501 H       1  UNL1        0.0654
@<TRIPOS>BOND
     1     1    21    1
     2     2     1    1
     3     2    22    1
     4     3     2    1
     5     3    23    1
     6     3    24    1
     7     4     3    1
     8     5     4    1
     9     6     5   ar
    10     7     6    1
    11     8     6   ar
    12     8    25    1
    13     9     8   ar
    14     9    26    1
    15    10     9   ar
    16    10    27    1
    17    11    10   ar
    18    11     5   ar
    19    11    28    1
    20    12     2    1
    21    12    29    1
    22    12    30    1
    23    13    12    1
    24    14    13    1
    25    15    14   ar
    26    16    15    1
    27    17    15   ar
    28    17    31    1
    29    18    17   ar
    30    18    32    1
    31    19    18   ar
    32    19    33    1
    33    20    19   ar
    34    20    14   ar
    35    20    34    1
@<TRIPOS>MOLECULE
mol_30_akc_aac01299_10
>30.sdf
 48 51 0 0 0
SMALL
GASTEIGER

@<TRIPOS>ATOM
      1 O           1.5576   -1.5359   -0.8133 O.3     1  UNL1       -0.5033
      2 C           0.3367   -0.9239   -0.7624 C.ar    1  UNL1        0.1582
      3 C          -0.8276   -1.6303   -0.4939 C.ar    1  UNL1       -0.0160
      4 C          -2.0473   -0.9455   -0.4529 C.ar    1  UNL1       -0.0509
      5 C          -2.1070    0.4428   -0.6647 C.ar    1  UNL1       -0.0213
      6 C          -3.3731    1.1902   -0.6448 C.2     1  UNL1       -0.0525
      7 C          -4.4445    0.8717    0.1057 C.2     1  UNL1       -0.0357
      8 C          -5.6939    1.6454    0.1103 C.ar    1  UNL1        0.0647
      9 N          -5.7439    2.7297   -0.6912 N.ar    1  UNL1       -0.2436
     10 C          -6.8701    3.4661   -0.7496 C.ar    1  UNL1        0.1136
     11 C          -8.0066    3.1423    0.0188 C.ar    1  UNL1        0.0040
     12 C          -7.9344    2.0194    0.8534 C.ar    1  UNL1       -0.0504
     13 C          -6.7669    1.2609    0.8988 C.ar    1  UNL1       -0.0357
     14 C          -9.1624    3.9355   -0.0572 C.ar    1  UNL1       -0.0517
     15 C          -9.1963    5.0502   -0.8958 C.ar    1  UNL1       -0.0467
     16 C          -8.0819    5.3846   -1.6728 C.ar    1  UNL1        0.0658
     17 C          -8.1915    6.5975   -2.5346 C.2     1  UNL1        0.1968
     18 O          -8.9161    7.5231   -2.1621 O.2     1  UNL1       -0.2865
     19 C          -7.4887    6.7386   -3.8305 C.ar    1  UNL1        0.0245
     20 C          -7.1003    8.0169   -4.2541 C.ar    1  UNL1       -0.0207
     21 C          -6.4934    8.1689   -5.5079 C.ar    1  UNL1        0.1269
     22 C          -6.2469    7.0550   -6.3242 C.ar    1  UNL1       -0.0314
     23 C          -6.6279    5.7861   -5.8896 C.ar    1  UNL1       -0.0589
     24 C          -7.2688    5.6317   -4.6615 C.ar    1  UNL1       -0.0508
     25 N          -6.1355    9.5084   -5.9926 N.pl3   1  UNL1        0.0564
     26 O          -6.3744   10.4725   -5.2504 O.2     1  UNL1       -0.1261
     27 O          -5.6183    9.5963   -7.1142 O.2     1  UNL1       -0.1261
     28 C          -6.9275    4.5929   -1.5785 C.ar    1  UNL1        0.1535
     29 O          -5.7986    4.8806   -2.3143 O.3     1  UNL1       -0.5039
     30 C          -0.9212    1.1329   -0.9577 C.ar    1  UNL1       -0.0094
     31 C           0.2856    0.4459   -0.9979 C.ar    1  UNL1        0.1588
     32 O           1.4370    1.1298   -1.2728 O.3     1  UNL1       -0.5033
     33 H           1.4277   -2.4825   -0.6316 H       1  UNL1        0.2923
     34 H          -0.8131   -2.7011   -0.3203 H       1  UNL1        0.0655
     35 H          -2.9548   -1.5146   -0.2650 H       1  UNL1        0.0625
     36 H          -3.4061    2.0723   -1.2844 H       1  UNL1        0.0624
     37 H          -4.4217    0.0127    0.7686 H       1  UNL1        0.0639
     38 H          -8.7823    1.7279    1.4684 H       1  UNL1        0.0625
     39 H          -6.7101    0.3873    1.5393 H       1  UNL1        0.0639
     40 H         -10.0417    3.6925    0.5343 H       1  UNL1        0.0624
     41 H         -10.1016    5.6542   -0.9452 H       1  UNL1        0.0626
     42 H          -7.2873    8.8788   -3.6128 H       1  UNL1        0.0647
     43 H          -5.7733    7.1581   -7.2973 H       1  UNL1        0.0640
     44 H          -6.4388    4.9129   -6.5114 H       1  UNL1        0.0618
     45 H          -7.5762    4.6337   -4.3562 H       1  UNL1        0.0625
     46 H          -5.4913    5.7671   -2.0610 H       1  UNL1        0.2923
     47 H          -0.9287    2.2029   -1.1472 H       1  UNL1        0.0661
     48 H           2.1373    0.4501   -1.2436 H       1  UNL1        0.2923
@<TRIPOS>BOND
     1     1    33    1
     2     2     1    1
     3     3     2   ar
     4     3    34    1
     5     4     3   ar
     6     4    35    1
     7     5     4   ar
     8     6     5    1
     9     6    36    1
    10     7     6    2
    11     7    37    1
    12     8     7    1
    13     9     8   ar
    14    10     9   ar
    15    11    10   ar
    16    12    11   ar
    17    12    38    1
    18    13    12   ar
    19    13     8   ar
    20    13    39    1
    21    14    11   ar
    22    14    40    1
    23    15    14   ar
    24    15    41    1
    25    16    15   ar
    26    17    16    1
    27    18    17    2
    28    19    17    1
    29    20    19   ar
    30    20    42    1
    31    21    20   ar
    32    22    21   ar
    33    22    43    1
    34    23    22   ar
    35    23    44    1
    36    24    23   ar
    37    24    19   ar
    38    24    45    1
    39    25    21    1
    40    26    25    2
    41    27    25    2
    42    28    16   ar
    43    28    10   ar
    44    29    28    1
    45    29    46    1
    46    30     5   ar
    47    30    47    1
    48    31    30   ar
    49    31     2   ar
    50    32    31    1
    51    32    48    1
@<TRIPOS>MOLECULE
mol_310_akc_cbdd12986
>300.sdf
 42 42 0 0 0
SMALL
GASTEIGER

@<TRIPOS>ATOM
      1 C           0.9538    0.0454    0.0525 C.3     1  UNL1       -0.0653
      2 C           2.4733    0.0566    0.0279 C.3     1  UNL1       -0.0559
      3 C           3.0143    1.4382   -0.3374 C.3     1  UNL1       -0.0533
      4 C           4.5420    1.4424   -0.3612 C.3     1  UNL1       -0.0531
      5 C           5.0882    2.8219   -0.7280 C.3     1  UNL1       -0.0529
      6 C           6.6159    2.8173   -0.7496 C.3     1  UNL1       -0.0483
      7 C           7.1721    4.1940   -1.1124 C.3     1  UNL1       -0.0126
      8 C           8.6935    4.1707   -1.1265 C.3     1  UNL1       -0.0334
      9 N           9.2003    5.5267   -1.4787 N.4     1  UNL1        0.2303
     10 C          10.6880    5.6186   -1.5207 C.3     1  UNL1       -0.0077
     11 C          11.1419    6.9901   -1.9225 C.ar    1  UNL1       -0.0030
     12 C          11.3474    7.9876   -0.9576 C.ar    1  UNL1       -0.0535
     13 C          11.7842    9.2568   -1.3383 C.ar    1  UNL1       -0.0613
     14 C          12.0082    9.5464   -2.6820 C.ar    1  UNL1       -0.0617
     15 C          11.7870    8.5708   -3.6501 C.ar    1  UNL1       -0.0613
     16 C          11.3498    7.2994   -3.2764 C.ar    1  UNL1       -0.0535
     17 H           0.5865   -0.9512    0.3153 H       1  UNL1        0.0230
     18 H           0.5690    0.7560    0.7908 H       1  UNL1        0.0230
     19 H           0.5446    0.3119   -0.9274 H       1  UNL1        0.0230
     20 H           2.8521   -0.2435    1.0119 H       1  UNL1        0.0263
     21 H           2.8278   -0.6857   -0.6966 H       1  UNL1        0.0263
     22 H           2.6298    1.7361   -1.3205 H       1  UNL1        0.0265
     23 H           2.6553    2.1781    0.3881 H       1  UNL1        0.0265
     24 H           4.9257    1.1448    0.6225 H       1  UNL1        0.0265
     25 H           4.9003    0.7007   -1.0855 H       1  UNL1        0.0265
     26 H           4.7065    3.1202   -1.7121 H       1  UNL1        0.0265
     27 H           4.7320    3.5640   -0.0035 H       1  UNL1        0.0265
     28 H           6.9962    2.5149    0.2340 H       1  UNL1        0.0267
     29 H           6.9709    2.0747   -1.4747 H       1  UNL1        0.0267
     30 H           6.7943    4.4965   -2.0967 H       1  UNL1        0.0317
     31 H           6.8170    4.9375   -0.3877 H       1  UNL1        0.0317
     32 H           9.0991    3.9142   -0.1424 H       1  UNL1        0.0814
     33 H           9.0747    3.4724   -1.8792 H       1  UNL1        0.0814
     34 H           8.8340    5.8195   -2.3939 H       1  UNL1        0.2017
     35 H           8.8534    6.2251   -0.8087 H       1  UNL1        0.2017
     36 H          11.0640    5.3561   -0.5248 H       1  UNL1        0.0866
     37 H          11.0446    4.8663   -2.2336 H       1  UNL1        0.0866
     38 H          11.1978    7.7889    0.1030 H       1  UNL1        0.0622
     39 H          11.9652   10.0232   -0.5861 H       1  UNL1        0.0618
     40 H          12.3654   10.5321   -2.9743 H       1  UNL1        0.0618
     41 H          11.9698    8.8013   -4.6983 H       1  UNL1        0.0618
     42 H          11.2017    6.5544   -4.0557 H       1  UNL1        0.0622
@<TRIPOS>UNITY_ATOM_ATTR
9 1
charge 1
@<TRIPOS>BOND
     1     1    17    1
     2     1    18    1
     3     1    19    1
     4     2     1    1
     5     2    20    1
     6     2    21    1
     7     3     2    1
     8     3    22    1
     9     3    23    1
    10     4     3    1
    11     4    24    1
    12     4    25    1
    13     5     4    1
    14     5    26    1
    15     5    27    1
    16     6     5    1
    17     6    28    1
    18     6    29    1
    19     7     6    1
    20     7    30    1
    21     7    31    1
    22     8     7    1
    23     8    32    1
    24     8    33    1
    25     9     8    1
    26     9    34    1
    27     9    35    1
    28    10     9    1
    29    10    36    1
    30    10    37    1
    31    11    10    1
    32    12    11   ar
    33    12    38    1
    34    13    12   ar
    35    13    39    1
    36    14    13   ar
    37    14    40    1
    38    15    14   ar
    39    15    41    1
    40    16    15   ar
    41    16    11   ar
    42    16    42    1
@<TRIPOS>MOLECULE
mol_311_akc_jejps201705005
>301.sdf
 40 44 0 0 0
SMALL
GASTEIGER

@<TRIPOS>ATOM
      1 O           1.2362    2.2667    0.2818 O.2     1  UNL1       -0.2680
      2 C           1.1513    1.0994    0.6183 C.2     1  UNL1        0.2705
      3 N           2.0268    0.0407    0.5286 N.am    1  UNL1       -0.1478
      4 N           3.2634    0.1201   -0.1204 N.pl3   1  UNL1       -0.2327
      5 C           4.0662    1.2074   -0.0489 C.ar    1  UNL1        0.1756
      6 N           4.0756    2.0905    0.9235 N.ar    1  UNL1       -0.2237
      7 C           4.8934    3.1614    0.6033 C.ar    1  UNL1        0.0803
      8 C           5.5631    3.0348   -0.5975 C.ar    1  UNL1        0.0049
      9 S           5.1721    1.5369   -1.3296 S.2     1  UNL1       -0.0588
     10 C           4.9793    4.3285    1.4735 C.ar    1  UNL1        0.0015
     11 C           6.1289    5.1295    1.5221 C.ar    1  UNL1       -0.0448
     12 C           6.2000    6.2511    2.3663 C.ar    1  UNL1       -0.0173
     13 C           7.3520    7.0521    2.4166 C.ar    1  UNL1       -0.0540
     14 C           7.4149    8.1596    3.2629 C.ar    1  UNL1       -0.0612
     15 C           6.3270    8.4808    4.0688 C.ar    1  UNL1       -0.0612
     16 C           5.1727    7.6962    4.0291 C.ar    1  UNL1       -0.0540
     17 C           5.0940    6.5780    3.1830 C.ar    1  UNL1       -0.0178
     18 C           3.9449    5.7752    3.1316 C.ar    1  UNL1       -0.0534
     19 C           3.8901    4.6622    2.2872 C.ar    1  UNL1       -0.0520
     20 C           1.3822   -1.1697    0.6092 C.2     1  UNL1        0.2705
     21 O           1.7640   -2.2799    0.2853 O.2     1  UNL1       -0.2680
     22 C           0.0188   -0.8599    1.0446 C.ar    1  UNL1        0.0510
     23 C          -0.1080    0.5192    1.0785 C.ar    1  UNL1        0.0510
     24 C          -1.2951    1.1422    1.4116 C.ar    1  UNL1       -0.0488
     25 C          -2.3825    0.3209    1.7148 C.ar    1  UNL1       -0.0610
     26 C          -2.2629   -1.0839    1.6595 C.ar    1  UNL1       -0.0610
     27 C          -1.0493   -1.6919    1.3165 C.ar    1  UNL1       -0.0488
     28 H           3.3211   -0.4651   -0.9491 H       1  UNL1        0.1728
     29 H           6.2317    3.7294   -1.0837 H       1  UNL1        0.0716
     30 H           6.9922    4.8766    0.9117 H       1  UNL1        0.0630
     31 H           8.2129    6.8170    1.7949 H       1  UNL1        0.0624
     32 H           8.3143    8.7691    3.2925 H       1  UNL1        0.0618
     33 H           6.3757    9.3415    4.7306 H       1  UNL1        0.0618
     34 H           4.3332    7.9627    4.6671 H       1  UNL1        0.0624
     35 H           3.0801    6.0075    3.7488 H       1  UNL1        0.0624
     36 H           2.9848    4.0566    2.2601 H       1  UNL1        0.0624
     37 H          -1.3748    2.2255    1.4218 H       1  UNL1        0.0625
     38 H          -3.3382    0.7694    1.9793 H       1  UNL1        0.0618
     39 H          -3.1330   -1.7012    1.8766 H       1  UNL1        0.0618
     40 H          -0.9537   -2.7709    1.2511 H       1  UNL1        0.0625
@<TRIPOS>BOND
     1     2     1    2
     2     3     2   am
     3     4     3    1
     4     4    28    1
     5     5     4    1
     6     6     5   ar
     7     7     6   ar
     8     8     7   ar
     9     8    29    1
    10     9     8   ar
    11     9     5   ar
    12    10     7    1
    13    11    10   ar
    14    11    30    1
    15    12    11   ar
    16    13    12   ar
    17    13    31    1
    18    14    13   ar
    19    14    32    1
    20    15    14   ar
    21    15    33    1
    22    16    15   ar
    23    16    34    1
    24    17    16   ar
    25    17    12   ar
    26    18    17   ar
    27    18    35    1
    28    19    18   ar
    29    19    10   ar
    30    19    36    1
    31    20     3   am
    32    21    20    2
    33    22    20    1
    34    23    22   ar
    35    23     2    1
    36    24    23   ar
    37    24    37    1
    38    25    24   ar
    39    25    38    1
    40    26    25   ar
    41    26    39    1
    42    27    26   ar
    43    27    22   ar
    44    27    40    1
@<TRIPOS>MOLECULE
mol_312_akc_jejps201705005
>302.sdf
 34 37 0 0 0
SMALL
GASTEIGER

@<TRIPOS>ATOM
      1 CL         -0.9064    2.6945   -0.8550 Cl      1  UNL1       -0.0835
      2 C           0.1630    1.3738   -0.5894 C.ar    1  UNL1        0.0424
      3 C           1.0891    1.4324    0.4466 C.ar    1  UNL1       -0.0244
      4 C           1.9791    0.3698    0.6590 C.ar    1  UNL1        0.0515
      5 CL          3.1501    0.6174    1.9114 Cl      1  UNL1       -0.0828
      6 C           1.9296   -0.7806   -0.1522 C.ar    1  UNL1        0.0193
      7 C           0.9835   -0.8086   -1.1977 C.ar    1  UNL1       -0.0498
      8 C           0.1089    0.2597   -1.4182 C.ar    1  UNL1       -0.0427
      9 C           2.8193   -1.9365   -0.0244 C.ar    1  UNL1        0.0816
     10 C           3.2941   -2.4613    1.1604 C.ar    1  UNL1        0.0050
     11 S           4.3544   -3.7697    0.8460 S.2     1  UNL1       -0.0588
     12 C           3.9917   -3.6494   -0.8326 C.ar    1  UNL1        0.1756
     13 N           4.5010   -4.5590   -1.6969 N.pl3   1  UNL1       -0.2327
     14 N           3.8519   -4.8929   -2.8828 N.am    1  UNL1       -0.1478
     15 C           4.5582   -5.2860   -3.9861 C.2     1  UNL1        0.2705
     16 O           5.7611   -5.3545   -4.1713 O.2     1  UNL1       -0.2680
     17 C           3.5515   -5.7618   -4.9375 C.ar    1  UNL1        0.0510
     18 C           2.3181   -5.7378   -4.3007 C.ar    1  UNL1        0.0510
     19 C           1.1615   -6.1555   -4.9267 C.ar    1  UNL1       -0.0488
     20 C           1.2766   -6.6066   -6.2452 C.ar    1  UNL1       -0.0610
     21 C           2.5299   -6.6422   -6.8912 C.ar    1  UNL1       -0.0610
     22 C           3.6912   -6.2212   -6.2334 C.ar    1  UNL1       -0.0488
     23 C           2.5294   -5.2645   -2.9328 C.2     1  UNL1        0.2705
     24 O           1.6730   -5.3250   -2.0665 O.2     1  UNL1       -0.2680
     25 N           3.2014   -2.6512   -1.1541 N.ar    1  UNL1       -0.2237
     26 H           1.1341    2.3155    1.0797 H       1  UNL1        0.0647
     27 H           0.9296   -1.6741   -1.8590 H       1  UNL1        0.0625
     28 H          -0.6018    0.2151   -2.2397 H       1  UNL1        0.0632
     29 H           3.1082   -2.1506    2.1777 H       1  UNL1        0.0716
     30 H           5.1129   -5.2847   -1.3408 H       1  UNL1        0.1728
     31 H           0.2053   -6.1392   -4.4126 H       1  UNL1        0.0625
     32 H           0.3898   -6.9424   -6.7804 H       1  UNL1        0.0618
     33 H           2.5947   -7.0046   -7.9159 H       1  UNL1        0.0618
     34 H           4.6637   -6.2555   -6.7155 H       1  UNL1        0.0625
@<TRIPOS>BOND
     1     2     1    1
     2     3     2   ar
     3     3    26    1
     4     4     3   ar
     5     5     4    1
     6     6     4   ar
     7     7     6   ar
     8     7    27    1
     9     8     7   ar
    10     8     2   ar
    11     8    28    1
    12     9     6    1
    13    10     9   ar
    14    10    29    1
    15    11    10   ar
    16    12    11   ar
    17    13    12    1
    18    13    30    1
    19    14    13    1
    20    15    14   am
    21    16    15    2
    22    17    15    1
    23    18    17   ar
    24    19    18   ar
    25    19    31    1
    26    20    19   ar
    27    20    32    1
    28    21    20   ar
    29    21    33    1
    30    22    21   ar
    31    22    17   ar
    32    22    34    1
    33    23    18    1
    34    23    14   am
    35    24    23    2
    36    25    12   ar
    37    25     9   ar
@<TRIPOS>MOLECULE
mol_313_akc_s00044_017_1846_5
>303.sdf
 61 64 0 0 0
SMALL
GASTEIGER

@<TRIPOS>ATOM
      1 O           7.5689   -7.3800   -5.0862 O.2     1  UNL1       -0.2871
      2 C           6.8272   -7.3662   -4.1112 C.ar    1  UNL1        0.1925
      3 C           5.7741   -8.3800   -3.9431 C.ar    1  UNL1        0.0207
      4 C           4.9904   -8.3099   -2.8600 C.ar    1  UNL1        0.0961
      5 O           5.0658   -7.3618   -1.8683 O.2     1  UNL1       -0.4626
      6 C           6.0431   -6.4021   -1.9783 C.ar    1  UNL1        0.1418
      7 C           6.1312   -5.4555   -0.9595 C.ar    1  UNL1        0.0231
      8 C           7.1185   -4.4658   -1.0064 C.ar    1  UNL1        0.1240
      9 O           7.1148   -3.6032    0.0581 O.3     1  UNL1       -0.4918
     10 C           8.1016   -2.5788    0.0036 C.3     1  UNL1        0.0896
     11 C           7.9646   -1.6671    1.2166 C.3     1  UNL1       -0.0186
     12 C           9.0243   -0.5723    1.2011 C.3     1  UNL1       -0.0500
     13 C           8.9209    0.3284   -0.0352 C.3     1  UNL1       -0.0530
     14 C           9.9856    1.4184   -0.0534 C.3     1  UNL1       -0.0531
     15 C          11.3849    0.8164   -0.0724 C.3     1  UNL1       -0.0530
     16 C          12.4647    1.8890   -0.0991 C.3     1  UNL1       -0.0500
     17 C          13.8698    1.2760   -0.1039 C.3     1  UNL1       -0.0186
     18 C          14.1092    0.3856   -1.3198 C.3     1  UNL1        0.0897
     19 O          13.9250    1.1706   -2.4961 O.3     1  UNL1       -0.4898
     20 C          14.0540    0.5003   -3.6929 C.ar    1  UNL1        0.1463
     21 C          14.5419    1.2490   -4.7841 C.ar    1  UNL1        0.1124
     22 N          14.9083    2.5501   -4.6617 N.ar    1  UNL1       -0.2513
     23 C          15.3681    3.2046   -5.7520 C.ar    1  UNL1        0.0284
     24 C          15.4955    2.6266   -6.9978 C.ar    1  UNL1       -0.0430
     25 C          15.1281    1.2960   -7.1346 C.ar    1  UNL1       -0.0510
     26 C          14.6439    0.5860   -6.0292 C.ar    1  UNL1        0.0040
     27 C          14.2628   -0.7593   -6.1615 C.ar    1  UNL1       -0.0523
     28 C          13.7677   -1.4644   -5.0729 C.ar    1  UNL1       -0.0576
     29 C          13.6571   -0.8301   -3.8407 C.ar    1  UNL1       -0.0178
     30 C           8.0088   -4.4264   -2.0860 C.ar    1  UNL1       -0.0190
     31 C           7.9177   -5.3678   -3.1110 C.ar    1  UNL1       -0.0439
     32 C           6.9336   -6.3544   -3.0506 C.ar    1  UNL1        0.0642
     33 H           5.6775   -9.1398   -4.7020 H       1  UNL1        0.0687
     34 H           4.1909   -9.0093   -2.6596 H       1  UNL1        0.1031
     35 H           5.4366   -5.4843   -0.1247 H       1  UNL1        0.0691
     36 H           9.1056   -3.0231    0.0032 H       1  UNL1        0.0696
     37 H           7.9496   -1.9966   -0.9111 H       1  UNL1        0.0696
     38 H           6.9627   -1.2264    1.2495 H       1  UNL1        0.0298
     39 H           8.0695   -2.2616    2.1325 H       1  UNL1        0.0298
     40 H           8.9389    0.0406    2.1058 H       1  UNL1        0.0266
     41 H          10.0023   -1.0635    1.2431 H       1  UNL1        0.0266
     42 H           9.0340   -0.2570   -0.9549 H       1  UNL1        0.0265
     43 H           7.9263    0.7874   -0.0720 H       1  UNL1        0.0265
     44 H           9.8427    2.0320   -0.9517 H       1  UNL1        0.0265
     45 H           9.8635    2.0726    0.8155 H       1  UNL1        0.0265
     46 H          11.5585    0.1933    0.8104 H       1  UNL1        0.0265
     47 H          11.4537    0.1601   -0.9479 H       1  UNL1        0.0265
     48 H          12.3269    2.5297   -0.9771 H       1  UNL1        0.0266
     49 H          12.3588    2.5288    0.7849 H       1  UNL1        0.0266
     50 H          14.6012    2.0910   -0.0998 H       1  UNL1        0.0298
     51 H          14.0225    0.6878    0.8093 H       1  UNL1        0.0298
     52 H          15.1241   -0.0237   -1.2978 H       1  UNL1        0.0696
     53 H          13.4053   -0.4488   -1.2734 H       1  UNL1        0.0696
     54 H          15.6374    4.2432   -5.5841 H       1  UNL1        0.0830
     55 H          15.8708    3.1965   -7.8391 H       1  UNL1        0.0633
     56 H          15.2219    0.8174   -8.1062 H       1  UNL1        0.0625
     57 H          14.3375   -1.2641   -7.1215 H       1  UNL1        0.0624
     58 H          13.4560   -2.5002   -5.1802 H       1  UNL1        0.0619
     59 H          13.2318   -1.3995   -3.0251 H       1  UNL1        0.0655
     60 H           8.7898   -3.6735   -2.1687 H       1  UNL1        0.0654
     61 H           8.6153   -5.3365   -3.9447 H       1  UNL1        0.0627
@<TRIPOS>BOND
     1     2     1    2
     2     3     2   ar
     3     3    33    1
     4     4     3   ar
     5     4    34    1
     6     5     4   ar
     7     6     5   ar
     8     7     6   ar
     9     7    35    1
    10     8     7   ar
    11     9     8    1
    12    10     9    1
    13    10    36    1
    14    10    37    1
    15    11    10    1
    16    11    38    1
    17    11    39    1
    18    12    11    1
    19    12    40    1
    20    12    41    1
    21    13    12    1
    22    13    42    1
    23    13    43    1
    24    14    13    1
    25    14    44    1
    26    14    45    1
    27    15    14    1
    28    15    46    1
    29    15    47    1
    30    16    15    1
    31    16    48    1
    32    16    49    1
    33    17    16    1
    34    17    50    1
    35    17    51    1
    36    18    17    1
    37    18    52    1
    38    18    53    1
    39    19    18    1
    40    20    19    1
    41    21    20   ar
    42    22    21   ar
    43    23    22   ar
    44    23    54    1
    45    24    23   ar
    46    24    55    1
    47    25    24   ar
    48    25    56    1
    49    26    25   ar
    50    26    21   ar
    51    27    26   ar
    52    27    57    1
    53    28    27   ar
    54    28    58    1
    55    29    28   ar
    56    29    20   ar
    57    29    59    1
    58    30     8   ar
    59    30    60    1
    60    31    30   ar
    61    31    61    1
    62    32    31   ar
    63    32     2   ar
    64    32     6   ar
@<TRIPOS>MOLECULE
mol_314_akc_ijbms20178828
>304.sdf
 42 45 0 0 0
SMALL
GASTEIGER

@<TRIPOS>ATOM
      1 C          -1.7439    1.4302    2.1041 C.3     1  UNL1        0.0154
      2 N          -1.2687    0.7655    0.9105 N.ar    1  UNL1       -0.3066
      3 C          -1.6533   -0.4708    0.4416 C.ar    1  UNL1        0.2157
      4 C          -1.0260   -0.6411   -0.7662 C.ar    1  UNL1        0.0774
      5 N          -0.2601    0.4548   -1.0536 N.ar    1  UNL1       -0.2315
      6 C          -0.3903    1.2827   -0.0266 C.ar    1  UNL1        0.1695
      7 C           0.2828    2.5494    0.0424 C.ar    1  UNL1        0.1689
      8 N           0.6601    3.1398    1.1551 N.ar    1  UNL1       -0.1365
      9 N           1.2918    4.3488    0.9112 N.ar    1  UNL1       -0.1254
     10 C           1.3347    4.6639   -0.3694 C.ar    1  UNL1        0.1846
     11 S           0.6635    3.4213   -1.3728 S.2     1  UNL1       -0.0276
     12 N           1.8837    5.7910   -0.8956 N.pl3   1  UNL1       -0.3052
     13 C           1.3913    6.3986   -2.1245 C.3     1  UNL1        0.0299
     14 C           2.5812    6.6916   -3.0398 C.3     1  UNL1        0.0308
     15 N           3.5942    7.5163   -2.3750 N.am    1  UNL1       -0.2941
     16 C           3.9982    7.0462   -1.0304 C.3     1  UNL1        0.0308
     17 C           2.8040    6.6343   -0.1291 C.3     1  UNL1        0.0299
     18 C           4.2702    8.5967   -2.9545 C.2     1  UNL1        0.2534
     19 O           5.0440    9.2699   -2.2700 O.2     1  UNL1       -0.2694
     20 C           4.0250    8.9137   -4.3635 C.ar    1  UNL1        0.0754
     21 C           3.8414    8.0904   -5.4657 C.ar    1  UNL1       -0.0411
     22 C           3.5533    8.8177   -6.6591 C.ar    1  UNL1       -0.0355
     23 C           3.6446   10.1661   -6.4423 C.ar    1  UNL1        0.0787
     24 CL          3.4406   11.4027   -7.6155 Cl      1  UNL1       -0.0758
     25 S           4.0044   10.5702   -4.8419 S.2     1  UNL1       -0.0722
     26 N          -2.5400   -1.3773    1.0873 N.pl3   1  UNL1        0.0750
     27 O          -3.0015   -1.0508    2.1861 O.2     1  UNL1       -0.1246
     28 O          -2.7781   -2.4296    0.4885 O.2     1  UNL1       -0.1246
     29 H          -2.8366    1.4579    2.0768 H       1  UNL1        0.0457
     30 H          -1.3803    0.8797    2.9747 H       1  UNL1        0.0457
     31 H          -1.3937    2.4602    2.1530 H       1  UNL1        0.0457
     32 H          -1.0848   -1.4847   -1.4433 H       1  UNL1        0.0869
     33 H           0.6686    5.7842   -2.6693 H       1  UNL1        0.0480
     34 H           0.8781    7.3371   -1.8800 H       1  UNL1        0.0480
     35 H           3.0733    5.7559   -3.3385 H       1  UNL1        0.0480
     36 H           2.1778    7.1754   -3.9276 H       1  UNL1        0.0480
     37 H           4.6405    6.1720   -1.1958 H       1  UNL1        0.0480
     38 H           4.6032    7.7973   -0.5124 H       1  UNL1        0.0480
     39 H           2.2729    7.5336    0.2064 H       1  UNL1        0.0480
     40 H           3.1912    6.1266    0.7619 H       1  UNL1        0.0480
     41 H           3.8765    7.0085   -5.4234 H       1  UNL1        0.0631
     42 H           3.3220    8.3707   -7.6181 H       1  UNL1        0.0638
@<TRIPOS>BOND
     1     1    29    1
     2     1    30    1
     3     1    31    1
     4     2     1    1
     5     3     2   ar
     6     4     3   ar
     7     4    32    1
     8     5     4   ar
     9     6     5   ar
    10     6     2   ar
    11     7     6    1
    12     8     7   ar
    13     9     8   ar
    14    10     9   ar
    15    11    10   ar
    16    11     7   ar
    17    12    10    1
    18    13    12    1
    19    13    33    1
    20    13    34    1
    21    14    13    1
    22    14    35    1
    23    14    36    1
    24    15    14    1
    25    16    15    1
    26    16    37    1
    27    16    38    1
    28    17    16    1
    29    17    12    1
    30    17    39    1
    31    17    40    1
    32    18    15   am
    33    19    18    2
    34    20    18    1
    35    21    20   ar
    36    21    41    1
    37    22    21   ar
    38    22    42    1
    39    23    22   ar
    40    24    23    1
    41    25    23   ar
    42    25    20   ar
    43    26     3    1
    44    27    26    2
    45    28    26    2
@<TRIPOS>MOLECULE
mol_315_akc_1570180813666160927113743
>305.sdf
 43 46 0 0 0
SMALL
GASTEIGER

@<TRIPOS>ATOM
      1 CL         -6.3817    3.0520    1.6428 Cl      1  UNL1       -0.0835
      2 C          -5.2709    1.7781    1.3183 C.ar    1  UNL1        0.0430
      3 C          -5.7301    0.4727    1.2037 C.ar    1  UNL1       -0.0426
      4 C          -4.8226   -0.5491    0.9214 C.ar    1  UNL1       -0.0494
      5 C          -3.4456   -0.2729    0.7460 C.ar    1  UNL1        0.0216
      6 C          -2.4722   -1.2598    0.4375 C.ar    1  UNL1        0.0420
      7 N          -2.8596   -2.6151    0.1996 N.pl3   1  UNL1       -0.3139
      8 C          -2.0068   -3.7450    0.2382 C.ar    1  UNL1        0.0314
      9 C          -1.1233   -3.9421    1.3104 C.ar    1  UNL1       -0.0387
     10 C          -0.2044   -4.9944    1.3031 C.ar    1  UNL1       -0.0333
     11 C          -0.1818   -5.8804    0.2237 C.ar    1  UNL1        0.1087
     12 C          -1.0810   -5.7257   -0.8349 C.ar    1  UNL1       -0.0333
     13 C          -1.9985   -4.6676   -0.8178 C.ar    1  UNL1       -0.0387
     14 S           1.1023   -7.1152    0.1342 S.O2    1  UNL1        0.0735
     15 O           1.2568   -7.4986   -1.2548 O.2     1  UNL1       -0.1499
     16 O           2.2281   -6.6043    0.8877 O.2     1  UNL1       -0.1499
     17 N           0.4941   -8.4186    1.0087 N.pl3   1  UNL1       -0.1995
     18 C          -0.6758   -9.0038    0.4946 C.ar    1  UNL1        0.1377
     19 C          -0.6616   -9.8810   -0.5758 C.ar    1  UNL1       -0.0204
     20 C          -1.8799  -10.3940   -1.0070 C.ar    1  UNL1       -0.0570
     21 C          -3.0500   -9.9915   -0.3698 C.ar    1  UNL1       -0.0435
     22 C          -2.9503   -9.0930    0.6820 C.ar    1  UNL1        0.0297
     23 N          -1.7810   -8.5915    1.1359 N.ar    1  UNL1       -0.2390
     24 C          -1.1372   -0.8669    0.3064 C.ar    1  UNL1       -0.0218
     25 C          -0.8113    0.4598    0.4935 C.ar    1  UNL1        0.0300
     26 N          -1.7120    1.4188    0.7769 N.ar    1  UNL1       -0.2548
     27 C          -2.9980    1.0627    0.8955 C.ar    1  UNL1        0.0741
     28 C          -3.9165    2.0623    1.1721 C.ar    1  UNL1       -0.0173
     29 H          -6.7844    0.2450    1.3350 H       1  UNL1        0.0632
     30 H          -5.1929   -1.5699    0.8518 H       1  UNL1        0.0625
     31 H          -3.4958   -2.6449   -0.5947 H       1  UNL1        0.1522
     32 H          -1.1332   -3.2523    2.1523 H       1  UNL1        0.0637
     33 H           0.5008   -5.0932    2.1250 H       1  UNL1        0.0638
     34 H          -1.0602   -6.4063   -1.6833 H       1  UNL1        0.0638
     35 H          -2.6760   -4.5502   -1.6597 H       1  UNL1        0.0637
     36 H           0.3541   -8.1545    1.9814 H       1  UNL1        0.1752
     37 H           0.2691  -10.1707   -1.0514 H       1  UNL1        0.0652
     38 H          -1.9165  -11.1024   -1.8305 H       1  UNL1        0.0619
     39 H          -4.0165  -10.3701   -0.6841 H       1  UNL1        0.0633
     40 H          -3.8367   -8.7416    1.2027 H       1  UNL1        0.0830
     41 H          -0.3558   -1.5692    0.0399 H       1  UNL1        0.0651
     42 H           0.2165    0.7995    0.4053 H       1  UNL1        0.0830
     43 H          -3.5617    3.0850    1.2733 H       1  UNL1        0.0653
@<TRIPOS>BOND
     1     2     1    1
     2     3     2   ar
     3     3    29    1
     4     4     3   ar
     5     4    30    1
     6     5     4   ar
     7     6     5   ar
     8     7     6    1
     9     7    31    1
    10     8     7    1
    11     9     8   ar
    12     9    32    1
    13    10     9   ar
    14    10    33    1
    15    11    10   ar
    16    12    11   ar
    17    12    34    1
    18    13    12   ar
    19    13     8   ar
    20    13    35    1
    21    14    11    1
    22    15    14    2
    23    16    14    2
    24    17    14    1
    25    17    36    1
    26    18    17    1
    27    19    18   ar
    28    19    37    1
    29    20    19   ar
    30    20    38    1
    31    21    20   ar
    32    21    39    1
    33    22    21   ar
    34    22    40    1
    35    23    22   ar
    36    23    18   ar
    37    24     6   ar
    38    24    41    1
    39    25    24   ar
    40    25    42    1
    41    26    25   ar
    42    27    26   ar
    43    27     5   ar
    44    28    27   ar
    45    28     2   ar
    46    28    43    1
@<TRIPOS>MOLECULE
mol_316_akc_jexppara201702004
>306.sdf
 46 48 0 0 0
SMALL
GASTEIGER

@<TRIPOS>ATOM
      1 C           1.2297   -0.2305    1.9898 C.3     1  UNL1       -0.0430
      2 N           0.4861    0.8832    1.3159 N.4     1  UNL1        0.2353
      3 C          -0.9662    1.0124    1.7773 C.3     1  UNL1       -0.0160
      4 C          -1.9097   -0.0015    1.0918 C.3     1  UNL1        0.0526
      5 N          -1.7398    0.0483   -0.3813 N.pl3   1  UNL1       -0.3163
      6 C          -0.3516   -0.2414   -0.7935 C.3     1  UNL1        0.0526
      7 C           0.5843    0.8361   -0.2105 C.3     1  UNL1       -0.0160
      8 C          -2.8381    0.0407   -1.2858 C.2     1  UNL1        0.0889
      9 C          -2.8650    0.6863   -2.4800 C.2     1  UNL1        0.0470
     10 C          -1.7252    1.4606   -2.9684 C.2     1  UNL1       -0.0503
     11 C          -0.9950    1.1849   -4.0697 C.2     1  UNL1       -0.0750
     12 C          -1.2582    0.0393   -5.0128 C.3     1  UNL1       -0.0437
     13 C           0.1717    2.0587   -4.4419 C.3     1  UNL1       -0.0437
     14 C          -4.0971    0.7277   -3.3259 C.2     1  UNL1        0.1957
     15 O          -4.2036    1.5089   -4.2702 O.2     1  UNL1       -0.2866
     16 C          -5.2030   -0.1707   -3.0072 C.ar    1  UNL1        0.0332
     17 C          -5.2093   -0.8621   -1.8069 C.ar    1  UNL1        0.0344
     18 C          -6.2986   -1.6874   -1.4905 C.ar    1  UNL1       -0.0502
     19 C          -7.3567   -1.8314   -2.3922 C.ar    1  UNL1       -0.0610
     20 C          -7.3343   -1.1506   -3.6071 C.ar    1  UNL1       -0.0610
     21 C          -6.2635   -0.3132   -3.9131 C.ar    1  UNL1       -0.0502
     22 C          -4.0796   -0.7423   -0.8680 C.2     1  UNL1        0.2083
     23 O          -4.1392   -1.3234    0.2121 O.2     1  UNL1       -0.2853
     24 H           2.2746   -0.1737    1.6725 H       1  UNL1        0.0778
     25 H           1.1641   -0.0767    3.0700 H       1  UNL1        0.0778
     26 H           0.7872   -1.1869    1.7056 H       1  UNL1        0.0778
     27 H           0.9497    1.7536    1.6056 H       1  UNL1        0.2032
     28 H          -0.9814    0.9095    2.8671 H       1  UNL1        0.0830
     29 H          -1.2650    2.0351    1.5187 H       1  UNL1        0.0830
     30 H          -1.7095   -1.0165    1.4529 H       1  UNL1        0.0516
     31 H          -2.9252    0.2769    1.3919 H       1  UNL1        0.0516
     32 H          -0.0664   -1.2333   -0.4252 H       1  UNL1        0.0516
     33 H          -0.2285   -0.2931   -1.8771 H       1  UNL1        0.0516
     34 H           0.2964    1.8358   -0.5572 H       1  UNL1        0.0830
     35 H           1.6332    0.6609   -0.4705 H       1  UNL1        0.0830
     36 H          -1.4781    2.3298   -2.3629 H       1  UNL1        0.0625
     37 H          -1.7199    0.4144   -5.9329 H       1  UNL1        0.0274
     38 H          -0.3216   -0.4622   -5.2794 H       1  UNL1        0.0274
     39 H          -1.9165   -0.7236   -4.5880 H       1  UNL1        0.0274
     40 H          -0.0636    3.1189   -4.3042 H       1  UNL1        0.0274
     41 H           1.0386    1.8047   -3.8224 H       1  UNL1        0.0274
     42 H           0.4568    1.9193   -5.4902 H       1  UNL1        0.0274
     43 H          -6.3303   -2.2260   -0.5452 H       1  UNL1        0.0625
     44 H          -8.1976   -2.4782   -2.1471 H       1  UNL1        0.0618
     45 H          -8.1531   -1.2674   -4.3149 H       1  UNL1        0.0618
     46 H          -6.2574    0.2261   -4.8599 H       1  UNL1        0.0625
@<TRIPOS>UNITY_ATOM_ATTR
2 1
charge 1
@<TRIPOS>BOND
     1     1    24    1
     2     1    25    1
     3     1    26    1
     4     3     2    1
     5     3    28    1
     6     3    29    1
     7     4     3    1
     8     4    30    1
     9     4    31    1
    10     5     4    1
    11     6     5    1
    12     6    32    1
    13     6    33    1
    14     7     6    1
    15     7     2    1
    16     7    34    1
    17     7    35    1
    18     8     5    1
    19     9     8    2
    20    10     9    1
    21    10    36    1
    22    11    10    2
    23    12    11    1
    24    12    37    1
    25    12    38    1
    26    12    39    1
    27    13    11    1
    28    13    40    1
    29    13    41    1
    30    13    42    1
    31    14     9    1
    32    15    14    2
    33    16    14    1
    34    17    16   ar
    35    18    17   ar
    36    18    43    1
    37    19    18   ar
    38    19    44    1
    39    20    19   ar
    40    20    45    1
    41    21    20   ar
    42    21    16   ar
    43    21    46    1
    44    22    17    1
    45    22     8    1
    46    23    22    2
    47     2    27    1
    48     2     1    1
@<TRIPOS>MOLECULE
mol_318_akc_s0031182016002389
>308.sdf
 48 49 0 0 0
SMALL
GASTEIGER

@<TRIPOS>ATOM
      1 C           0.9036    0.1655    0.2540 C.3     1  UNL1        0.0788
      2 O           2.3253    0.1757    0.2014 O.3     1  UNL1       -0.4942
      3 C           2.9877   -1.0180    0.0705 C.ar    1  UNL1        0.1379
      4 C           2.3255   -2.2518    0.0377 C.ar    1  UNL1        0.0228
      5 C           3.0510   -3.4430    0.0153 C.ar    1  UNL1        0.1273
      6 O           2.3813   -4.6367    0.0012 O.3     1  UNL1       -0.5062
      7 C           4.4512   -3.4533    0.0249 C.ar    1  UNL1        0.0400
      8 C           5.1874   -4.7755    0.1466 C.3     1  UNL1       -0.0023
      9 C           5.6205   -5.3613   -1.1702 C.2     1  UNL1       -0.0807
     10 C           6.7122   -6.1178   -1.4056 C.2     1  UNL1       -0.0793
     11 C           7.7298   -6.5233   -0.3751 C.3     1  UNL1       -0.0440
     12 C           6.9480   -6.6797   -2.7842 C.3     1  UNL1       -0.0440
     13 C           5.1141   -2.2097   -0.0319 C.ar    1  UNL1        0.1381
     14 O           6.4808   -2.1637   -0.1426 O.3     1  UNL1       -0.5055
     15 C           4.3982   -0.9875    0.0027 C.ar    1  UNL1        0.1050
     16 C           5.1580    0.3056    0.0515 C.2     1  UNL1        0.1931
     17 O           6.1593    0.4283    0.7524 O.2     1  UNL1       -0.2870
     18 C           4.6449    1.4651   -0.7417 C.2     1  UNL1       -0.0135
     19 C           5.2498    2.6628   -0.6625 C.2     1  UNL1       -0.0510
     20 C           4.6583    3.8538   -1.2734 C.ar    1  UNL1       -0.0247
     21 C           3.9224    4.7324   -0.4683 C.ar    1  UNL1       -0.0511
     22 C           3.3121    5.8624   -1.0221 C.ar    1  UNL1       -0.0196
     23 C           3.4441    6.1080   -2.3843 C.ar    1  UNL1        0.1169
     24 O           2.8613    7.1945   -2.9674 O.3     1  UNL1       -0.5068
     25 C           4.1770    5.2472   -3.1966 C.ar    1  UNL1       -0.0196
     26 C           4.7851    4.1165   -2.6403 C.ar    1  UNL1       -0.0511
     27 H           0.4757   -0.2779   -0.6512 H       1  UNL1        0.0660
     28 H           0.5489   -0.3471    1.1540 H       1  UNL1        0.0660
     29 H           0.5635    1.2042    0.3043 H       1  UNL1        0.0660
     30 H           1.2436   -2.3064    0.0623 H       1  UNL1        0.0691
     31 H           1.4235   -4.4784   -0.0220 H       1  UNL1        0.2921
     32 H           6.0296   -4.6342    0.8321 H       1  UNL1        0.0358
     33 H           4.5446   -5.5099    0.6479 H       1  UNL1        0.0358
     34 H           4.9348   -5.1812   -1.9993 H       1  UNL1        0.0575
     35 H           7.7761   -7.6155   -0.3035 H       1  UNL1        0.0274
     36 H           8.7202   -6.1541   -0.6607 H       1  UNL1        0.0274
     37 H           7.5117   -6.1449    0.6256 H       1  UNL1        0.0274
     38 H           6.1104   -7.3166   -3.0886 H       1  UNL1        0.0274
     39 H           7.0710   -5.8746   -3.5153 H       1  UNL1        0.0274
     40 H           7.8531   -7.2960   -2.8157 H       1  UNL1        0.0274
     41 H           6.8524   -3.0506   -0.2683 H       1  UNL1        0.2922
     42 H           3.7403    1.3377   -1.3237 H       1  UNL1        0.0656
     43 H           6.1511    2.8105   -0.0731 H       1  UNL1        0.0625
     44 H           3.8149    4.5383    0.5972 H       1  UNL1        0.0625
     45 H           2.7425    6.5265   -0.3799 H       1  UNL1        0.0654
     46 H           2.4053    7.7072   -2.2800 H       1  UNL1        0.2921
     47 H           4.2747    5.4552   -4.2573 H       1  UNL1        0.0654
     48 H           5.3571    3.4494   -3.2802 H       1  UNL1        0.0625
@<TRIPOS>BOND
     1     1    27    1
     2     1    28    1
     3     1    29    1
     4     2     1    1
     5     3     2    1
     6     4     3   ar
     7     4    30    1
     8     5     4   ar
     9     6     5    1
    10     6    31    1
    11     7     5   ar
    12     8     7    1
    13     8    32    1
    14     8    33    1
    15     9     8    1
    16     9    34    1
    17    10     9    2
    18    11    10    1
    19    11    35    1
    20    11    36    1
    21    11    37    1
    22    12    10    1
    23    12    38    1
    24    12    39    1
    25    12    40    1
    26    13     7   ar
    27    14    13    1
    28    14    41    1
    29    15    13   ar
    30    15     3   ar
    31    16    15    1
    32    17    16    2
    33    18    16    1
    34    18    42    1
    35    19    18    2
    36    19    43    1
    37    20    19    1
    38    21    20   ar
    39    21    44    1
    40    22    21   ar
    41    22    45    1
    42    23    22   ar
    43    24    23    1
    44    24    46    1
    45    25    23   ar
    46    25    47    1
    47    26    25   ar
    48    26    20   ar
    49    26    48    1
@<TRIPOS>MOLECULE
mol_319_akc_jbcp201612012
>309.sdf
 40 43 0 0 0
SMALL
GASTEIGER

@<TRIPOS>ATOM
      1 C           1.1611    1.0688    0.6611 C.3     1  UNL1        0.0817
      2 O           2.5766    0.8943    0.5861 O.3     1  UNL1       -0.4666
      3 C           2.9755   -0.4085    0.5449 C.2     1  UNL1        0.3279
      4 O           2.2319   -1.3705    0.7336 O.2     1  UNL1       -0.2487
      5 C           4.4926   -0.5585    0.4178 C.3     1  UNL1        0.1278
      6 C           5.0115   -0.6951    1.8675 C.3     1  UNL1        0.0038
      7 C           6.4873   -0.5839    1.9178 C.ar    1  UNL1       -0.0147
      8 C           7.2120   -0.0325    0.8820 C.ar    1  UNL1        0.0439
      9 N           8.5318   -0.0275    1.2602 N.ar    1  UNL1       -0.3560
     10 C           8.6607   -0.5091    2.5445 C.ar    1  UNL1        0.0470
     11 C           7.3907   -0.8996    2.9721 C.ar    1  UNL1        0.0032
     12 C           7.2453   -1.4439    4.2613 C.ar    1  UNL1       -0.0523
     13 C           8.3695   -1.5646    5.0860 C.ar    1  UNL1       -0.0611
     14 C           9.6227   -1.1482    4.6427 C.ar    1  UNL1       -0.0598
     15 C           9.7939   -0.6163    3.3608 C.ar    1  UNL1       -0.0378
     16 C           6.6752    0.5275   -0.3976 C.3     1  UNL1        0.0761
     17 C           7.1629    1.9829   -0.5717 C.3     1  UNL1       -0.0379
     18 C           7.0266   -0.3058   -1.6258 C.3     1  UNL1       -0.0178
     19 C           5.9628    0.1191   -2.6324 C.3     1  UNL1        0.0265
     20 C           4.7777    0.4302   -1.7495 C.2     1  UNL1        0.2170
     21 O           3.6269    0.5164   -2.1465 O.2     1  UNL1       -0.2756
     22 N           5.1983    0.4692   -0.3991 N.am    1  UNL1       -0.2768
     23 H           0.7370    0.9856   -0.3430 H       1  UNL1        0.0661
     24 H           0.6845    0.3565    1.3379 H       1  UNL1        0.0661
     25 H           0.9640    2.0773    1.0415 H       1  UNL1        0.0661
     26 H           4.6583   -1.5111   -0.1114 H       1  UNL1        0.0620
     27 H           4.6922   -1.6614    2.2783 H       1  UNL1        0.0337
     28 H           4.5783    0.0829    2.5073 H       1  UNL1        0.0337
     29 H           9.3026    0.3352    0.7143 H       1  UNL1        0.1657
     30 H           6.2698   -1.7560    4.6217 H       1  UNL1        0.0624
     31 H           8.2591   -1.9780    6.0858 H       1  UNL1        0.0618
     32 H          10.4810   -1.2353    5.3052 H       1  UNL1        0.0618
     33 H          10.7713   -0.2876    3.0237 H       1  UNL1        0.0638
     34 H           8.2589    2.0448   -0.5489 H       1  UNL1        0.0254
     35 H           6.8443    2.4266   -1.5234 H       1  UNL1        0.0254
     36 H           6.7772    2.6301    0.2246 H       1  UNL1        0.0254
     37 H           8.0436   -0.1470   -1.9990 H       1  UNL1        0.0294
     38 H           6.9173   -1.3792   -1.4156 H       1  UNL1        0.0294
     39 H           6.2451    1.0025   -3.2076 H       1  UNL1        0.0359
     40 H           5.7105   -0.7031   -3.3076 H       1  UNL1        0.0359
@<TRIPOS>BOND
     1     1    23    1
     2     1    24    1
     3     1    25    1
     4     2     1    1
     5     3     2    1
     6     4     3    2
     7     6     5    1
     8     7     6    1
     9     8     7   ar
    10     9     8   ar
    11    10     9   ar
    12    11    10   ar
    13    11     7   ar
    14    12    11   ar
    15    13    12   ar
    16    14    13   ar
    17    15    14   ar
    18    15    10   ar
    19    16     8    1
    20    17    34    1
    21    17    35    1
    22    17    36    1
    23    18    16    1
    24    19    18    1
    25    20    19    1
    26    22    20   am
    27    22     5    1
    28    22    16    1
    29     6    27    1
    30     6    28    1
    31     9    29    1
    32    12    30    1
    33    13    31    1
    34    14    32    1
    35    15    33    1
    36    16    17    1
    37    18    37    1
    38    18    38    1
    39    19    39    1
    40    19    40    1
    41    21    20    2
    42     5    26    1
    43     5     3    1
@<TRIPOS>MOLECULE
mol_31_akc_c6ob01149g
>31.sdf
 65 67 0 0 0
SMALL
GASTEIGER

@<TRIPOS>ATOM
      1 C           6.9312    8.2088   -1.4091 C.3     1  UNL1       -0.0245
      2 C           6.5263    6.8732   -0.8279 C.3     1  UNL1       -0.0348
      3 N           7.5845    5.8019   -0.9917 N.4     1  UNL1        0.2348
      4 C           8.9548    6.1490   -0.4421 C.3     1  UNL1       -0.0348
      5 C           8.9773    6.2832    1.0688 C.3     1  UNL1       -0.0245
      6 C           7.0927    4.4454   -0.5171 C.3     1  UNL1       -0.0319
      7 C           5.8628    3.9691   -1.2976 C.3     1  UNL1       -0.0109
      8 C           6.0401    3.8162   -2.8184 C.3     1  UNL1       -0.0300
      9 C           7.0317    2.7300   -3.2890 C.3     1  UNL1        0.0180
     10 C           6.6728    1.3735   -2.6706 C.3     1  UNL1       -0.0467
     11 N           8.4224    3.1063   -2.9587 N.pl3   1  UNL1       -0.3407
     12 C           9.1899    3.9378   -3.8145 C.ar    1  UNL1        0.0383
     13 C           8.6403    4.5502   -4.9507 C.ar    1  UNL1       -0.0186
     14 C           9.3882    5.4753   -5.6711 C.ar    1  UNL1        0.0468
     15 N          10.6108    5.8869   -5.2648 N.ar    1  UNL1       -0.2512
     16 C          11.1675    5.2992   -4.2075 C.ar    1  UNL1        0.0744
     17 C          10.5371    4.2758   -3.4656 C.ar    1  UNL1        0.0213
     18 C          11.2829    3.6960   -2.4050 C.ar    1  UNL1       -0.0494
     19 C          12.5593    4.1748   -2.0640 C.ar    1  UNL1       -0.0426
     20 C          13.1095    5.2278   -2.7685 C.ar    1  UNL1        0.0430
     21 CL         14.6204    5.8888   -2.2938 Cl      1  UNL1       -0.0835
     22 C          12.4231    5.7682   -3.8502 C.ar    1  UNL1       -0.0173
     23 C           8.8532    6.0764   -6.9620 C.3     1  UNL1        0.0014
     24 C           9.8302    5.8086   -8.1206 C.3     1  UNL1       -0.0448
     25 C           9.3633    6.4643   -9.4171 C.3     1  UNL1       -0.0525
     26 C           9.1206    7.9582   -9.2302 C.3     1  UNL1       -0.0530
     27 C           8.1342    8.2250   -8.0971 C.3     1  UNL1       -0.0525
     28 C           8.5889    7.5793   -6.7896 C.3     1  UNL1       -0.0448
     29 H           6.0402    8.8412   -1.4965 H       1  UNL1        0.0281
     30 H           7.6385    8.7321   -0.7605 H       1  UNL1        0.0281
     31 H           7.3649    8.1021   -2.4075 H       1  UNL1        0.0281
     32 H           6.2686    6.9422    0.2329 H       1  UNL1        0.0812
     33 H           5.6461    6.5421   -1.3815 H       1  UNL1        0.0812
     34 H           7.7598    5.6843   -2.0001 H       1  UNL1        0.2033
     35 H           9.6375    5.3540   -0.7575 H       1  UNL1        0.0812
     36 H           9.2797    7.0715   -0.9311 H       1  UNL1        0.0812
     37 H           8.1469    6.8810    1.4528 H       1  UNL1        0.0281
     38 H           8.9492    5.3009    1.5509 H       1  UNL1        0.0281
     39 H           9.9071    6.7704    1.3815 H       1  UNL1        0.0281
     40 H           7.9224    3.7368   -0.5986 H       1  UNL1        0.0814
     41 H           6.8431    4.5466    0.5445 H       1  UNL1        0.0814
     42 H           5.5176    3.0255   -0.8616 H       1  UNL1        0.0317
     43 H           5.0208    4.6468   -1.1174 H       1  UNL1        0.0317
     44 H           5.0522    3.5706   -3.2333 H       1  UNL1        0.0285
     45 H           6.2987    4.7883   -3.2583 H       1  UNL1        0.0285
     46 H           6.9274    2.5896   -4.3710 H       1  UNL1        0.0495
     47 H           7.3944    0.6021   -2.9587 H       1  UNL1        0.0247
     48 H           6.6534    1.3976   -1.5767 H       1  UNL1        0.0247
     49 H           5.6814    1.0571   -3.0189 H       1  UNL1        0.0247
     50 H           8.9865    2.2755   -2.7404 H       1  UNL1        0.1464
     51 H           7.6549    4.3005   -5.3150 H       1  UNL1        0.0654
     52 H          10.8949    2.8483   -1.8535 H       1  UNL1        0.0625
     53 H          13.1078    3.7137   -1.2402 H       1  UNL1        0.0632
     54 H          12.8718    6.5758   -4.4268 H       1  UNL1        0.0653
     55 H           7.9013    5.5900   -7.2109 H       1  UNL1        0.0364
     56 H          10.8310    6.1888   -7.8768 H       1  UNL1        0.0272
     57 H           9.9398    4.7281   -8.2777 H       1  UNL1        0.0272
     58 H          10.1152    6.3084  -10.1990 H       1  UNL1        0.0265
     59 H           8.4400    5.9819   -9.7596 H       1  UNL1        0.0265
     60 H          10.0716    8.4596   -9.0126 H       1  UNL1        0.0265
     61 H           8.7380    8.3892  -10.1621 H       1  UNL1        0.0265
     62 H           8.0226    9.3057   -7.9536 H       1  UNL1        0.0265
     63 H           7.1467    7.8354   -8.3733 H       1  UNL1        0.0265
     64 H           7.8242    7.7400   -6.0195 H       1  UNL1        0.0272
     65 H           9.4949    8.0904   -6.4388 H       1  UNL1        0.0272
@<TRIPOS>UNITY_ATOM_ATTR
3 1
charge 1
@<TRIPOS>BOND
     1     1    29    1
     2     1    30    1
     3     1    31    1
     4     2     1    1
     5     2    32    1
     6     2    33    1
     7     3     2    1
     8     3    34    1
     9     4     3    1
    10     4    35    1
    11     4    36    1
    12     5     4    1
    13     5    37    1
    14     5    38    1
    15     5    39    1
    16     6     3    1
    17     6    40    1
    18     6    41    1
    19     7     6    1
    20     7    42    1
    21     7    43    1
    22     8     7    1
    23     8    44    1
    24     8    45    1
    25    10     9    1
    26    10    47    1
    27    10    48    1
    28    10    49    1
    29    11     9    1
    30    11    50    1
    31    12    11    1
    32    13    12   ar
    33    13    51    1
    34    14    13   ar
    35    15    14   ar
    36    16    15   ar
    37    17    16   ar
    38    17    12   ar
    39    18    17   ar
    40    18    52    1
    41    19    18   ar
    42    19    53    1
    43    20    19   ar
    44    21    20    1
    45    22    20   ar
    46    22    16   ar
    47    22    54    1
    48    23    14    1
    49    23    55    1
    50    24    23    1
    51    24    56    1
    52    24    57    1
    53    25    24    1
    54    25    58    1
    55    25    59    1
    56    26    25    1
    57    26    60    1
    58    26    61    1
    59    27    26    1
    60    27    62    1
    61    27    63    1
    62    28    27    1
    63    28    23    1
    64    28    64    1
    65    28    65    1
    66     9    46    1
    67     9     8    1
@<TRIPOS>MOLECULE
mol_320_akc_2210315507666161206123513
>310.sdf
 50 53 0 0 0
SMALL
GASTEIGER

@<TRIPOS>ATOM
      1 F           8.6129    0.9544   -1.5315 F       1  UNL1       -0.1659
      2 C           8.5816    2.3090   -1.3943 C.3     1  UNL1        0.4175
      3 F           9.7583    2.6502   -0.7992 F       1  UNL1       -0.1659
      4 F           8.6439    2.8127   -2.6584 F       1  UNL1       -0.1659
      5 C           7.3845    2.8162   -0.6323 C.ar    1  UNL1        0.0568
      6 C           6.4173    1.9308   -0.1404 C.ar    1  UNL1       -0.0241
      7 C           5.3017    2.3621    0.5617 C.ar    1  UNL1        0.0733
      8 C           5.1183    3.7438    0.8143 C.ar    1  UNL1        0.0212
      9 C           6.0913    4.6399    0.3013 C.ar    1  UNL1       -0.0503
     10 C           7.2074    4.1826   -0.4070 C.ar    1  UNL1       -0.0494
     11 C           3.9677    4.1326    1.5719 C.ar    1  UNL1        0.0378
     12 N           3.6991    5.5000    1.8353 N.pl3   1  UNL1       -0.3432
     13 C           2.8071    5.8314    2.9514 C.3     1  UNL1        0.0106
     14 C           2.6258    7.3434    3.0668 C.3     1  UNL1       -0.0215
     15 C           1.8426    7.9180    1.8818 C.3     1  UNL1        0.0175
     16 N           1.6037    9.3516    2.0248 N.am    1  UNL1       -0.2846
     17 C           2.6026   10.3041    1.5946 C.3     1  UNL1        0.1007
     18 S           2.2003   11.9007    2.3500 S.3     1  UNL1       -0.1242
     19 C           0.6190   11.3287    3.0086 C.3     1  UNL1        0.0725
     20 C           0.5713    9.8288    2.8172 C.2     1  UNL1        0.2266
     21 O          -0.2944    9.1193    3.3191 O.2     1  UNL1       -0.2747
     22 C           2.7913   10.3878    0.0900 C.ar    1  UNL1        0.0196
     23 C           1.7527   10.7288   -0.8073 C.ar    1  UNL1        0.0481
     24 CL          0.1097   10.9832   -0.3299 Cl      1  UNL1       -0.0831
     25 C           1.9881   10.8663   -2.1831 C.ar    1  UNL1       -0.0429
     26 C           3.2511   10.6459   -2.7109 C.ar    1  UNL1       -0.0590
     27 C           4.2828   10.2675   -1.8620 C.ar    1  UNL1       -0.0429
     28 C           4.0585   10.1363   -0.4832 C.ar    1  UNL1        0.0481
     29 CL          5.4246    9.6161    0.4502 Cl      1  UNL1       -0.0831
     30 C           3.0532    3.1325    1.9195 C.ar    1  UNL1       -0.0221
     31 C           3.3324    1.8193    1.6071 C.ar    1  UNL1        0.0300
     32 N           4.4405    1.4201    0.9589 N.ar    1  UNL1       -0.2548
     33 H           6.5296    0.8596   -0.3117 H       1  UNL1        0.0644
     34 H           5.9848    5.7129    0.4369 H       1  UNL1        0.0625
     35 H           7.9354    4.8994   -0.7843 H       1  UNL1        0.0623
     36 H           4.5703    6.0217    1.8954 H       1  UNL1        0.1461
     37 H           1.8166    5.3800    2.8241 H       1  UNL1        0.0462
     38 H           3.2419    5.4540    3.8843 H       1  UNL1        0.0462
     39 H           2.0820    7.5570    3.9964 H       1  UNL1        0.0295
     40 H           3.6006    7.8380    3.1566 H       1  UNL1        0.0295
     41 H           2.3687    7.7415    0.9375 H       1  UNL1        0.0465
     42 H           0.8698    7.4179    1.8132 H       1  UNL1        0.0465
     43 H           3.5212   10.0035    2.1000 H       1  UNL1        0.0669
     44 H           0.5520   11.5669    4.0718 H       1  UNL1        0.0472
     45 H          -0.2089   11.7995    2.4722 H       1  UNL1        0.0472
     46 H           1.1759   11.1478   -2.8522 H       1  UNL1        0.0632
     47 H           3.4271   10.7565   -3.7777 H       1  UNL1        0.0618
     48 H           5.2680   10.0741   -2.2810 H       1  UNL1        0.0632
     49 H           2.1198    3.3439    2.4245 H       1  UNL1        0.0651
     50 H           2.6445    1.0220    1.8778 H       1  UNL1        0.0830
@<TRIPOS>BOND
     1     2     1    1
     2     3     2    1
     3     4     2    1
     4     5     2    1
     5     6     5   ar
     6     6    33    1
     7     7     6   ar
     8     8     7   ar
     9     9     8   ar
    10     9    34    1
    11    10     9   ar
    12    10     5   ar
    13    10    35    1
    14    11     8   ar
    15    12    11    1
    16    12    36    1
    17    13    12    1
    18    13    37    1
    19    13    38    1
    20    14    13    1
    21    14    39    1
    22    14    40    1
    23    15    14    1
    24    15    41    1
    25    15    42    1
    26    16    15    1
    27    17    16    1
    28    18    17    1
    29    19    18    1
    30    19    44    1
    31    19    45    1
    32    20    19    1
    33    20    16   am
    34    21    20    2
    35    23    22   ar
    36    24    23    1
    37    25    23   ar
    38    25    46    1
    39    26    25   ar
    40    26    47    1
    41    27    26   ar
    42    27    48    1
    43    28    27   ar
    44    28    22   ar
    45    29    28    1
    46    30    11   ar
    47    30    49    1
    48    31    30   ar
    49    31    50    1
    50    32    31   ar
    51    32     7   ar
    52    17    22    1
    53    17    43    1
@<TRIPOS>MOLECULE
mol_321_akc_2210315507666161206123513
>310_2.sdf
 50 53 0 0 0
SMALL
GASTEIGER

@<TRIPOS>ATOM
      1 F           7.5406   -1.6472   -3.3026 F       1  UNL1       -0.1659
      2 C           7.1194   -0.7232   -2.3958 C.3     1  UNL1        0.4175
      3 F           8.0670    0.2556   -2.3968 F       1  UNL1       -0.1659
      4 F           6.0019   -0.1590   -2.9336 F       1  UNL1       -0.1659
      5 C           6.8738   -1.2906   -1.0187 C.ar    1  UNL1        0.0568
      6 C           7.0636   -2.6542   -0.7612 C.ar    1  UNL1       -0.0241
      7 C           6.8353   -3.2150    0.4883 C.ar    1  UNL1        0.0733
      8 C           6.4041   -2.3911    1.5576 C.ar    1  UNL1        0.0212
      9 C           6.2145   -1.0124    1.2968 C.ar    1  UNL1       -0.0503
     10 C           6.4454   -0.4691    0.0280 C.ar    1  UNL1       -0.0494
     11 C           6.1682   -3.0079    2.8200 C.ar    1  UNL1        0.0378
     12 N           5.8225   -2.2124    3.9384 N.pl3   1  UNL1       -0.3432
     13 C           5.0168   -2.7942    5.0209 C.3     1  UNL1        0.0106
     14 C           5.7926   -2.9819    6.3291 C.3     1  UNL1       -0.0215
     15 C           6.2361   -1.6580    6.9704 C.3     1  UNL1        0.0175
     16 N           6.9821   -1.8440    8.2157 N.am    1  UNL1       -0.2846
     17 C           6.3059   -1.9140    9.4951 C.3     1  UNL1        0.1007
     18 S           7.5433   -2.3655   10.7472 S.3     1  UNL1       -0.1242
     19 C           8.8080   -2.7563    9.5282 C.3     1  UNL1        0.0725
     20 C           8.2571   -2.3975    8.1680 C.2     1  UNL1        0.2266
     21 O           8.8743   -2.6074    7.1281 O.2     1  UNL1       -0.2747
     22 C           5.5007   -0.6968    9.9131 C.ar    1  UNL1        0.0196
     23 C           4.1249   -0.8222   10.2103 C.ar    1  UNL1        0.0481
     24 CL          3.2340   -2.2768    9.9045 Cl      1  UNL1       -0.0831
     25 C           3.3902    0.2365   10.7630 C.ar    1  UNL1       -0.0429
     26 C           4.0022    1.4545   11.0276 C.ar    1  UNL1       -0.0590
     27 C           5.3384    1.6293   10.6880 C.ar    1  UNL1       -0.0429
     28 C           6.0759    0.5772   10.1204 C.ar    1  UNL1        0.0481
     29 CL          7.7122    0.9521    9.6951 Cl      1  UNL1       -0.0831
     30 C           6.4374   -4.3702    2.9461 C.ar    1  UNL1       -0.0221
     31 C           6.8528   -5.0735    1.8348 C.ar    1  UNL1        0.0300
     32 N           7.0475   -4.5286    0.6202 N.ar    1  UNL1       -0.2548
     33 H           7.3970   -3.3139   -1.5623 H       1  UNL1        0.0644
     34 H           5.8669   -0.3562    2.0930 H       1  UNL1        0.0625
     35 H           6.2839    0.5957   -0.1381 H       1  UNL1        0.0623
     36 H           6.6771   -1.7622    4.2697 H       1  UNL1        0.1461
     37 H           4.1694   -2.1233    5.2032 H       1  UNL1        0.0462
     38 H           4.5688   -3.7507    4.7245 H       1  UNL1        0.0462
     39 H           5.1467   -3.5144    7.0395 H       1  UNL1        0.0295
     40 H           6.6559   -3.6339    6.1542 H       1  UNL1        0.0295
     41 H           6.9022   -1.1250    6.2835 H       1  UNL1        0.0465
     42 H           5.3759   -1.0081    7.1591 H       1  UNL1        0.0465
     43 H           5.6803   -2.8052    9.4289 H       1  UNL1        0.0669
     44 H           9.7208   -2.1868    9.7185 H       1  UNL1        0.0472
     45 H           9.0181   -3.8283    9.5625 H       1  UNL1        0.0472
     46 H           2.3361    0.1091   11.0030 H       1  UNL1        0.0632
     47 H           3.4394    2.2647   11.4852 H       1  UNL1        0.0618
     48 H           5.8103    2.5919   10.8795 H       1  UNL1        0.0632
     49 H           6.3477   -4.8895    3.8932 H       1  UNL1        0.0651
     50 H           7.0570   -6.1422    1.8951 H       1  UNL1        0.0830
@<TRIPOS>BOND
     1     2     1    1
     2     3     2    1
     3     4     2    1
     4     5     2    1
     5     6     5   ar
     6     6    33    1
     7     7     6   ar
     8     8     7   ar
     9     9     8   ar
    10     9    34    1
    11    10     9   ar
    12    10     5   ar
    13    10    35    1
    14    11     8   ar
    15    12    11    1
    16    12    36    1
    17    13    12    1
    18    13    37    1
    19    13    38    1
    20    14    13    1
    21    14    39    1
    22    14    40    1
    23    15    14    1
    24    15    41    1
    25    15    42    1
    26    16    15    1
    27    17    16    1
    28    17    43    1
    29    18    17    1
    30    19    18    1
    31    19    44    1
    32    19    45    1
    33    20    19    1
    34    20    16   am
    35    21    20    2
    36    22    17    1
    37    23    22   ar
    38    24    23    1
    39    25    23   ar
    40    25    46    1
    41    26    25   ar
    42    26    47    1
    43    27    26   ar
    44    27    48    1
    45    28    27   ar
    46    28    22   ar
    47    29    28    1
    48    30    11   ar
    49    30    49    1
    50    31    30   ar
    51    31    50    1
    52    32    31   ar
    53    32     7   ar
@<TRIPOS>MOLECULE
mol_322_akc_jexppara201701002
>311.sdf
 66 69 0 0 0
SMALL
GASTEIGER

@<TRIPOS>ATOM
      1 H           1.0389   -0.6787   -0.8003 H       1  UNL1        0.0311
      2 C           2.1190   -0.5646   -0.6462 C.3     1  UNL1       -0.0275
      3 C           2.6887    0.5183   -1.5662 C.3     1  UNL1       -0.0493
      4 C           4.1748    0.1786   -1.6646 C.3     1  UNL1       -0.0521
      5 C           4.2792   -1.3271   -1.3989 C.3     1  UNL1       -0.0429
      6 C           2.8610   -1.8060   -1.0783 C.3     1  UNL1        0.0249
      7 H           2.3903   -2.1820   -1.9968 H       1  UNL1        0.0384
      8 C           2.8194   -2.9218   -0.0528 C.2     1  UNL1        0.1626
      9 O           3.0203   -4.0810   -0.4191 O.2     1  UNL1       -0.2921
     10 C           2.6223   -2.6093    1.4152 C.2     1  UNL1       -0.0026
     11 C           2.8904   -3.7962    2.3365 C.3     1  UNL1        0.0040
     12 C           1.7221   -4.7539    2.6879 C.3     1  UNL1        0.0646
     13 C           1.0677   -5.4336    1.4821 C.3     1  UNL1       -0.0360
     14 C           2.2532   -5.8360    3.6426 C.3     1  UNL1       -0.0360
     15 O           0.7125   -4.0200    3.3926 O.3     1  UNL1       -0.3888
     16 C           2.4386   -1.3223    1.8148 C.2     1  UNL1       -0.0589
     17 C           2.4285   -0.8767    3.3043 C.3     1  UNL1        0.0087
     18 C           1.6383    0.4162    3.7604 C.3     1  UNL1        0.1118
     19 C           0.1535    0.2428    3.3747 C.3     1  UNL1       -0.0246
     20 C           2.3559    1.6927    3.2652 C.3     1  UNL1       -0.0088
     21 C           1.5901    2.9375    3.6410 C.3     1  UNL1       -0.0205
     22 C           1.1937    2.8689    5.0796 C.ar    1  UNL1       -0.0018
     23 C           1.2615    1.6636    5.7934 C.ar    1  UNL1        0.1276
     24 O           1.6778    0.4734    5.2217 O.3     1  UNL1       -0.4851
     25 C           0.8998    1.6514    7.1480 C.ar    1  UNL1       -0.0050
     26 C           0.9880    0.3909    7.9574 C.3     1  UNL1       -0.0361
     27 C           0.4216    2.8342    7.7412 C.ar    1  UNL1       -0.0136
     28 C           0.3279    4.0290    7.0221 C.ar    1  UNL1        0.1208
     29 O          -0.1627    5.1011    7.7138 O.3     1  UNL1       -0.4951
     30 C          -0.0913    6.3673    7.0645 C.3     1  UNL1        0.0788
     31 C           0.7194    4.0381    5.6879 C.ar    1  UNL1       -0.0133
     32 C           2.3819   -0.2060    0.8077 C.3     1  UNL1       -0.0275
     33 H           2.5261    1.5337   -1.1862 H       1  UNL1        0.0268
     34 H           2.2261    0.4551   -2.5574 H       1  UNL1        0.0268
     35 H           4.7461    0.7297   -0.9071 H       1  UNL1        0.0266
     36 H           4.5850    0.4576   -2.6402 H       1  UNL1        0.0266
     37 H           4.9764   -1.5197   -0.5755 H       1  UNL1        0.0272
     38 H           4.6710   -1.8473   -2.2793 H       1  UNL1        0.0272
     39 H           3.7105   -4.3891    1.9062 H       1  UNL1        0.0342
     40 H           3.3104   -3.4110    3.2740 H       1  UNL1        0.0342
     41 H           1.7945   -6.0028    0.8938 H       1  UNL1        0.0257
     42 H           0.2883   -6.1319    1.8104 H       1  UNL1        0.0257
     43 H           0.5667   -4.7072    0.8356 H       1  UNL1        0.0257
     44 H           2.6433   -5.3867    4.5628 H       1  UNL1        0.0257
     45 H           1.4560   -6.5224    3.9488 H       1  UNL1        0.0257
     46 H           3.0531   -6.4245    3.1784 H       1  UNL1        0.0257
     47 H           0.0043   -4.6381    3.6272 H       1  UNL1        0.2101
     48 H           2.0587   -1.7044    3.9241 H       1  UNL1        0.0349
     49 H           3.4779   -0.7457    3.6079 H       1  UNL1        0.0349
     50 H          -0.0158    0.1644    2.3002 H       1  UNL1        0.0268
     51 H          -0.2449   -0.6684    3.8404 H       1  UNL1        0.0268
     52 H          -0.4784    1.0556    3.7455 H       1  UNL1        0.0268
     53 H           3.3505    1.7359    3.7351 H       1  UNL1        0.0307
     54 H           2.5332    1.7548    2.1980 H       1  UNL1        0.0307
     55 H           2.2213    3.8160    3.4614 H       1  UNL1        0.0316
     56 H           0.6937    3.0389    3.0172 H       1  UNL1        0.0316
     57 H           0.2718   -0.3481    7.5891 H       1  UNL1        0.0279
     58 H           2.0005   -0.0234    7.9068 H       1  UNL1        0.0279
     59 H           0.7670    0.5806    9.0138 H       1  UNL1        0.0279
     60 H           0.1148    2.8321    8.7860 H       1  UNL1        0.0658
     61 H           0.9480    6.6378    6.8469 H       1  UNL1        0.0660
     62 H          -0.7013    6.3876    6.1545 H       1  UNL1        0.0660
     63 H          -0.4967    7.1203    7.7467 H       1  UNL1        0.0660
     64 H           0.6591    4.9425    5.0893 H       1  UNL1        0.0658
     65 H           1.5730    0.4828    1.0482 H       1  UNL1        0.0313
     66 H           3.3285    0.3408    0.8990 H       1  UNL1        0.0313
@<TRIPOS>BOND
     1     2     1    1
     2     3     2    1
     3     3    33    1
     4     3    34    1
     5     4     3    1
     6     4    35    1
     7     4    36    1
     8     5     4    1
     9     5    37    1
    10     5    38    1
    11     6     5    1
    12     6     2    1
    13     6     7    1
    14     8     6    1
    15     9     8    2
    16    10     8    1
    17    11    10    1
    18    11    39    1
    19    11    40    1
    20    12    11    1
    21    13    12    1
    22    13    41    1
    23    13    42    1
    24    13    43    1
    25    14    12    1
    26    14    44    1
    27    14    45    1
    28    14    46    1
    29    15    12    1
    30    15    47    1
    31    16    10    2
    32    17    16    1
    33    17    48    1
    34    17    49    1
    35    18    17    1
    36    19    18    1
    37    19    50    1
    38    19    51    1
    39    19    52    1
    40    20    18    1
    41    20    53    1
    42    20    54    1
    43    21    20    1
    44    21    55    1
    45    21    56    1
    46    22    21    1
    47    23    22   ar
    48    24    23    1
    49    24    18    1
    50    25    23   ar
    51    26    25    1
    52    26    57    1
    53    26    58    1
    54    26    59    1
    55    27    25   ar
    56    27    60    1
    57    28    27   ar
    58    29    28    1
    59    30    29    1
    60    30    61    1
    61    30    62    1
    62    30    63    1
    63    31    28   ar
    64    31    22   ar
    65    31    64    1
    66    32    16    1
    67    32     2    1
    68    32    65    1
    69    32    66    1
@<TRIPOS>MOLECULE
mol_323_akc_jbcp201612018
>312.sdf
 80 83 0 0 0
SMALL
GASTEIGER

@<TRIPOS>ATOM
      1 C           2.9100    2.1617    0.9219 C.3     1  UNL1       -0.0361
      2 C           1.6941    2.4383    0.0454 C.3     1  UNL1        0.0873
      3 O           2.1431    2.5977   -1.3092 O.3     1  UNL1       -0.3431
      4 C           1.0657    2.5940   -2.2527 C.3     1  UNL1        0.1884
      5 O           0.2577    1.4159   -2.2062 O.3     1  UNL1       -0.3389
      6 C           0.8399    0.1519   -2.6339 C.3     1  UNL1        0.1316
      7 C           2.0442   -0.2989   -1.7967 C.3     1  UNL1        0.1355
      8 O           1.6006   -0.6947   -0.4834 O.3     1  UNL1       -0.3841
      9 C           2.8663   -1.4427   -2.4001 C.3     1  UNL1        0.1880
     10 O           4.0673   -1.4282   -1.6147 O.3     1  UNL1       -0.3484
     11 C           5.0503   -2.3774   -2.0001 C.3     1  UNL1        0.0547
     12 C           6.2286   -2.2840   -1.0137 C.3     1  UNL1       -0.0039
     13 C           7.0877   -1.0305   -1.0298 C.ar    1  UNL1       -0.0415
     14 C           8.1617   -0.9472   -0.1210 C.ar    1  UNL1       -0.0548
     15 C           8.9912    0.1825   -0.0695 C.ar    1  UNL1       -0.0163
     16 C           8.7450    1.2382   -0.9344 C.ar    1  UNL1        0.1582
     17 O           9.5142    2.3658   -0.9394 O.3     1  UNL1       -0.5033
     18 C           7.6873    1.1653   -1.8337 C.ar    1  UNL1        0.1585
     19 O           7.4484    2.2200   -2.6814 O.3     1  UNL1       -0.5033
     20 C           6.8607    0.0509   -1.8916 C.ar    1  UNL1       -0.0133
     21 O           3.1054   -1.1993   -3.7768 O.3     1  UNL1       -0.3394
     22 C           1.8690   -1.1766   -4.5195 C.3     1  UNL1        0.1240
     23 C           2.2129   -1.2549   -6.0127 C.3     1  UNL1        0.0741
     24 O           2.7727   -2.5383   -6.3059 O.3     1  UNL1       -0.3923
     25 C           1.0713    0.0925   -4.1594 C.3     1  UNL1        0.1602
     26 O          -0.2528    0.0492   -4.7564 O.3     1  UNL1       -0.4528
     27 C          -0.4593    0.7333   -5.9034 C.2     1  UNL1        0.3324
     28 O           0.3969    1.3235   -6.5422 O.2     1  UNL1       -0.2456
     29 C          -1.8662    0.6407   -6.3510 C.2     1  UNL1        0.0231
     30 C          -2.8686    0.1774   -5.5888 C.2     1  UNL1       -0.0477
     31 C          -4.2500    0.1409   -6.0699 C.ar    1  UNL1       -0.0211
     32 C          -4.7680   -1.0286   -6.6529 C.ar    1  UNL1       -0.0509
     33 C          -6.0935   -1.0768   -7.0993 C.ar    1  UNL1       -0.0160
     34 C          -6.8956    0.0485   -6.9599 C.ar    1  UNL1        0.1582
     35 O          -8.2007    0.0638   -7.3662 O.3     1  UNL1       -0.5033
     36 C          -6.3830    1.2103   -6.3870 C.ar    1  UNL1        0.1588
     37 O          -7.1814    2.3103   -6.2514 O.3     1  UNL1       -0.5033
     38 C          -5.0684    1.2688   -5.9432 C.ar    1  UNL1       -0.0094
     39 C           0.2037    3.8495   -1.9711 C.3     1  UNL1        0.1341
     40 O           0.9443    5.0582   -2.2256 O.3     1  UNL1       -0.3841
     41 C          -0.2749    3.8569   -0.5078 C.3     1  UNL1        0.1140
     42 O          -0.9549    5.0805   -0.1717 O.3     1  UNL1       -0.3864
     43 C           0.8878    3.6574    0.4831 C.3     1  UNL1        0.1095
     44 O           0.3687    3.4614    1.8019 O.3     1  UNL1       -0.3866
     45 H           2.6079    1.8262    1.9187 H       1  UNL1        0.0255
     46 H           3.5360    1.3799    0.4761 H       1  UNL1        0.0255
     47 H           3.5411    3.0495    1.0236 H       1  UNL1        0.0255
     48 H           1.0481    1.5585    0.1235 H       1  UNL1        0.0621
     49 H           1.5119    2.7066   -3.2454 H       1  UNL1        0.0938
     50 H           0.0304   -0.5583   -2.4143 H       1  UNL1        0.0663
     51 H           2.7377    0.5281   -1.6602 H       1  UNL1        0.0671
     52 H           2.4176   -0.9102    0.0078 H       1  UNL1        0.2101
     53 H           2.3754   -2.4139   -2.2539 H       1  UNL1        0.0937
     54 H           4.6145   -3.3803   -1.9382 H       1  UNL1        0.0564
     55 H           5.3826   -2.1971   -3.0274 H       1  UNL1        0.0564
     56 H           5.8281   -2.3812    0.0049 H       1  UNL1        0.0335
     57 H           6.8908   -3.1389   -1.1972 H       1  UNL1        0.0335
     58 H           8.3582   -1.7706    0.5642 H       1  UNL1        0.0621
     59 H           9.8060    0.2126    0.6429 H       1  UNL1        0.0655
     60 H          10.1890    2.2689   -0.2427 H       1  UNL1        0.2923
     61 H           8.1391    2.8689   -2.4557 H       1  UNL1        0.2923
     62 H           6.0403    0.0501   -2.6057 H       1  UNL1        0.0658
     63 H           1.2890   -2.0758   -4.2693 H       1  UNL1        0.0658
     64 H           1.3240   -1.1530   -6.6383 H       1  UNL1        0.0584
     65 H           2.9494   -0.4925   -6.2860 H       1  UNL1        0.0584
     66 H           3.0915   -2.4990   -7.2243 H       1  UNL1        0.2095
     67 H           1.6162    0.9842   -4.4863 H       1  UNL1        0.0788
     68 H          -2.0411    1.0086   -7.3569 H       1  UNL1        0.0689
     69 H          -2.7157   -0.1700   -4.5705 H       1  UNL1        0.0626
     70 H          -4.1399   -1.9119   -6.7552 H       1  UNL1        0.0625
     71 H          -6.4741   -1.9923   -7.5426 H       1  UNL1        0.0655
     72 H          -8.4179   -0.8131   -7.7274 H       1  UNL1        0.2923
     73 H          -8.0455    2.0340   -6.6171 H       1  UNL1        0.2923
     74 H          -4.6961    2.1853   -5.4941 H       1  UNL1        0.0661
     75 H          -0.6699    3.8752   -2.6323 H       1  UNL1        0.0671
     76 H           1.8610    4.9030   -1.9235 H       1  UNL1        0.2101
     77 H          -1.0085    3.0611   -0.3604 H       1  UNL1        0.0648
     78 H          -0.9144    5.6525   -0.9632 H       1  UNL1        0.2100
     79 H           1.5188    4.5553    0.5076 H       1  UNL1        0.0646
     80 H          -0.4349    4.0164    1.8562 H       1  UNL1        0.2100
@<TRIPOS>BOND
     1     1    45    1
     2     1    46    1
     3     1    47    1
     4     2     1    1
     5     2    48    1
     6     3     2    1
     7     4     3    1
     8     6     5    1
     9     6    50    1
    10     7     6    1
    11     7    51    1
    12     8     7    1
    13     8    52    1
    14     9     7    1
    15    11    10    1
    16    11    54    1
    17    11    55    1
    18    12    11    1
    19    12    56    1
    20    12    57    1
    21    13    12    1
    22    14    13   ar
    23    14    58    1
    24    15    14   ar
    25    15    59    1
    26    16    15   ar
    27    17    16    1
    28    17    60    1
    29    18    16   ar
    30    19    18    1
    31    19    61    1
    32    20    18   ar
    33    20    13   ar
    34    20    62    1
    35    21     9    1
    36    22    21    1
    37    22    63    1
    38    23    22    1
    39    23    64    1
    40    23    65    1
    41    24    23    1
    42    24    66    1
    43    25    22    1
    44    25     6    1
    45    27    26    1
    46    28    27    2
    47    29    27    1
    48    29    68    1
    49    30    29    2
    50    30    69    1
    51    31    30    1
    52    32    31   ar
    53    32    70    1
    54    33    32   ar
    55    33    71    1
    56    34    33   ar
    57    35    34    1
    58    35    72    1
    59    36    34   ar
    60    37    36    1
    61    37    73    1
    62    38    36   ar
    63    38    31   ar
    64    38    74    1
    65    39     4    1
    66    39    75    1
    67    40    39    1
    68    40    76    1
    69    41    39    1
    70    41    77    1
    71    42    41    1
    72    42    78    1
    73    43    41    1
    74    43     2    1
    75    43    79    1
    76    44    43    1
    77    44    80    1
    78     4     5    1
    79     4    49    1
    80     9    10    1
    81     9    53    1
    82    25    26    1
    83    25    67    1
@<TRIPOS>MOLECULE
mol_324_akc_jactatropica201612027
>313.sdf
 36 39 0 0 0
SMALL
GASTEIGER

@<TRIPOS>ATOM
      1 CL          6.2402   -5.5773    0.2732 Cl      1  UNL1       -0.0835
      2 C           5.5936   -3.9854    0.1915 C.ar    1  UNL1        0.0410
      3 C           6.4543   -2.8922    0.1697 C.ar    1  UNL1       -0.0430
      4 C           5.9306   -1.6004    0.0984 C.ar    1  UNL1       -0.0536
      5 C           4.5400   -1.3894    0.0626 C.ar    1  UNL1       -0.0048
      6 C           3.6873   -2.5040    0.0823 C.ar    1  UNL1       -0.0536
      7 C           4.2144   -3.7970    0.1446 C.ar    1  UNL1       -0.0430
      8 C           3.9685    0.0237    0.0406 C.3     1  UNL1        0.1529
      9 O           4.5177    0.6382   -1.1353 O.3     1  UNL1       -0.4810
     10 C           4.2768    1.9753   -1.2459 C.ar    1  UNL1        0.1320
     11 C           4.3688    2.5126   -2.5307 C.ar    1  UNL1       -0.0192
     12 C           4.2028    3.8840   -2.7311 C.ar    1  UNL1       -0.0583
     13 C           3.9549    4.7235   -1.6456 C.ar    1  UNL1       -0.0609
     14 C           3.8552    4.1888   -0.3609 C.ar    1  UNL1       -0.0477
     15 C           4.0129    2.8106   -0.1655 C.ar    1  UNL1        0.0613
     16 C           3.9486    2.2421    1.1945 C.2     1  UNL1        0.1932
     17 O           3.6934    2.9781    2.1437 O.2     1  UNL1       -0.2896
     18 C           4.3064    0.7815    1.3343 C.3     1  UNL1        0.1387
     19 N           3.6606    0.1681    2.4917 N.ar    1  UNL1       -0.3223
     20 C           2.3142    0.0714    2.7285 C.ar    1  UNL1        0.0250
     21 C           2.2097   -0.7041    3.8606 C.ar    1  UNL1        0.0454
     22 N           3.4478   -1.0733    4.3136 N.ar    1  UNL1       -0.2440
     23 C           4.3019   -0.5265    3.4779 C.ar    1  UNL1        0.0967
     24 H           7.5307   -3.0369    0.2082 H       1  UNL1        0.0632
     25 H           6.6196   -0.7584    0.0710 H       1  UNL1        0.0622
     26 H           2.6063   -2.3796    0.0608 H       1  UNL1        0.0622
     27 H           3.5434   -4.6524    0.1637 H       1  UNL1        0.0632
     28 H           2.8801   -0.0318   -0.1057 H       1  UNL1        0.0810
     29 H           4.5708    1.8632   -3.3797 H       1  UNL1        0.0654
     30 H           4.2769    4.2994   -3.7338 H       1  UNL1        0.0619
     31 H           3.8460    5.7948   -1.7983 H       1  UNL1        0.0618
     32 H           3.6749    4.8500    0.4849 H       1  UNL1        0.0626
     33 H           5.3884    0.7694    1.5257 H       1  UNL1        0.0651
     34 H           1.5662    0.5409    2.1069 H       1  UNL1        0.0825
     35 H           1.3078   -1.0175    4.3707 H       1  UNL1        0.0845
     36 H           5.3783   -0.6240    3.5339 H       1  UNL1        0.1029
@<TRIPOS>BOND
     1     2     1    1
     2     3     2   ar
     3     3    24    1
     4     4     3   ar
     5     4    25    1
     6     5     4   ar
     7     6     5   ar
     8     6    26    1
     9     7     6   ar
    10     7     2   ar
    11     7    27    1
    12     9     8    1
    13    10     9    1
    14    11    10   ar
    15    11    29    1
    16    12    11   ar
    17    12    30    1
    18    13    12   ar
    19    13    31    1
    20    14    13   ar
    21    14    32    1
    22    15    14   ar
    23    15    10   ar
    24    16    15    1
    25    17    16    2
    26    18    16    1
    27    18     8    1
    28    18    33    1
    29    19    18    1
    30    20    19   ar
    31    20    34    1
    32    21    20   ar
    33    21    35    1
    34    22    21   ar
    35    23    22   ar
    36    23    19   ar
    37    23    36    1
    38     8    28    1
    39     8     5    1
@<TRIPOS>MOLECULE
mol_325_akc_jactatropica201612027
>313_2.sdf
 36 39 0 0 0
SMALL
GASTEIGER

@<TRIPOS>ATOM
      1 CL         -2.2031    0.2712   -1.2026 Cl      1  UNL1       -0.0835
      2 C          -0.5290    0.2255   -0.8122 C.ar    1  UNL1        0.0410
      3 C           0.3380   -0.5624   -1.5614 C.ar    1  UNL1       -0.0430
      4 C           1.7006   -0.5823   -1.2534 C.ar    1  UNL1       -0.0536
      5 C           2.2148    0.1822   -0.1889 C.ar    1  UNL1       -0.0048
      6 C           1.3161    0.9558    0.5650 C.ar    1  UNL1       -0.0536
      7 C          -0.0459    0.9808    0.2503 C.ar    1  UNL1       -0.0430
      8 C           3.7254    0.1450    0.0640 C.3     1  UNL1        0.1529
      9 O           4.4196    0.6433   -1.1034 O.3     1  UNL1       -0.4810
     10 C           4.3561    2.0044   -1.2253 C.ar    1  UNL1        0.1320
     11 C           4.4388    2.5233   -2.5164 C.ar    1  UNL1       -0.0192
     12 C           4.3245    3.8991   -2.7212 C.ar    1  UNL1       -0.0583
     13 C           4.1448    4.7560   -1.6349 C.ar    1  UNL1       -0.0609
     14 C           4.0931    4.2398   -0.3396 C.ar    1  UNL1       -0.0477
     15 C           4.2061    2.8602   -0.1368 C.ar    1  UNL1        0.0613
     16 C           4.1634    2.2915    1.2284 C.2     1  UNL1        0.1932
     17 O           4.0701    3.0645    2.1784 O.2     1  UNL1       -0.2896
     18 C           4.3068    0.7801    1.3467 C.3     1  UNL1        0.1387
     19 N           3.8125    0.1842    2.5946 N.ar    1  UNL1       -0.3223
     20 C           3.3033   -1.0829    2.7538 C.ar    1  UNL1        0.0250
     21 C           3.0309   -1.2102    4.0949 C.ar    1  UNL1        0.0454
     22 N           3.4016   -0.0833    4.7671 N.ar    1  UNL1       -0.2440
     23 C           3.8883    0.7255    3.8523 C.ar    1  UNL1        0.0967
     24 H          -0.0370   -1.1567   -2.3909 H       1  UNL1        0.0632
     25 H           2.3666   -1.1931   -1.8610 H       1  UNL1        0.0622
     26 H           1.6341    1.5605    1.4102 H       1  UNL1        0.0622
     27 H          -0.7203    1.5966    0.8414 H       1  UNL1        0.0632
     28 H           3.9943   -0.9195    0.0885 H       1  UNL1        0.0810
     29 H           4.5635    1.8572   -3.3664 H       1  UNL1        0.0654
     30 H           4.3657    4.3030   -3.7306 H       1  UNL1        0.0619
     31 H           4.0453    5.8272   -1.7970 H       1  UNL1        0.0618
     32 H           3.9604    4.9143    0.5041 H       1  UNL1        0.0626
     33 H           5.3916    0.5936    1.3688 H       1  UNL1        0.0651
     34 H           3.1574   -1.7836    1.9450 H       1  UNL1        0.0825
     35 H           2.5999   -2.0597    4.6090 H       1  UNL1        0.0845
     36 H           4.3003    1.7047    4.0633 H       1  UNL1        0.1029
@<TRIPOS>BOND
     1     2     1    1
     2     3     2   ar
     3     3    24    1
     4     4     3   ar
     5     4    25    1
     6     5     4   ar
     7     6     5   ar
     8     6    26    1
     9     7     6   ar
    10     7     2   ar
    11     7    27    1
    12     8     5    1
    13     8    28    1
    14     9     8    1
    15    10     9    1
    16    11    10   ar
    17    11    29    1
    18    12    11   ar
    19    12    30    1
    20    13    12   ar
    21    13    31    1
    22    14    13   ar
    23    14    32    1
    24    15    14   ar
    25    15    10   ar
    26    16    15    1
    27    17    16    2
    28    18    16    1
    29    18     8    1
    30    18    33    1
    31    19    18    1
    32    20    19   ar
    33    20    34    1
    34    21    20   ar
    35    21    35    1
    36    22    21   ar
    37    23    22   ar
    38    23    19   ar
    39    23    36    1
@<TRIPOS>MOLECULE
mol_326_akc_jactatropica201612027
>313_3.sdf
 36 39 0 0 0
SMALL
GASTEIGER

@<TRIPOS>ATOM
      1 CL          5.8673   -5.8302    0.2817 Cl      1  UNL1       -0.0835
      2 C           5.3621   -4.1879    0.2130 C.ar    1  UNL1        0.0410
      3 C           6.0589   -3.2808   -0.5781 C.ar    1  UNL1       -0.0430
      4 C           5.6435   -1.9475   -0.6395 C.ar    1  UNL1       -0.0536
      5 C           4.5318   -1.5037    0.0964 C.ar    1  UNL1       -0.0048
      6 C           3.8426   -2.4354    0.8918 C.ar    1  UNL1       -0.0536
      7 C           4.2537   -3.7708    0.9469 C.ar    1  UNL1       -0.0430
      8 C           4.0728   -0.0498    0.0601 C.3     1  UNL1        0.1529
      9 O           4.4173    0.5418   -1.2057 O.3     1  UNL1       -0.4810
     10 C           4.1898    1.8887   -1.2979 C.ar    1  UNL1        0.1320
     11 C           4.2905    2.4422   -2.5727 C.ar    1  UNL1       -0.0192
     12 C           4.1326    3.8181   -2.7520 C.ar    1  UNL1       -0.0583
     13 C           3.8658    4.6435   -1.6579 C.ar    1  UNL1       -0.0609
     14 C           3.7600    4.0947   -0.3803 C.ar    1  UNL1       -0.0477
     15 C           3.9356    2.7196   -0.2061 C.ar    1  UNL1        0.0613
     16 C           3.9366    2.1356    1.1462 C.2     1  UNL1        0.1932
     17 O           3.4884    2.7589    2.1034 O.2     1  UNL1       -0.2896
     18 C           4.5596    0.7694    1.2695 C.3     1  UNL1        0.1387
     19 N           5.9920    0.8962    1.4829 N.ar    1  UNL1       -0.3223
     20 C           6.5911    0.9922    2.7144 C.ar    1  UNL1        0.0250
     21 C           7.9333    1.1241    2.4550 C.ar    1  UNL1        0.0454
     22 N           8.1648    1.1394    1.1082 N.ar    1  UNL1       -0.2440
     23 C           6.9818    1.0243    0.5492 C.ar    1  UNL1        0.0967
     24 H           6.9261   -3.6008   -1.1509 H       1  UNL1        0.0632
     25 H           6.2045   -1.2634   -1.2724 H       1  UNL1        0.0622
     26 H           2.9721   -2.1363    1.4729 H       1  UNL1        0.0622
     27 H           3.7071   -4.4816    1.5613 H       1  UNL1        0.0632
     28 H           2.9716   -0.0789    0.0752 H       1  UNL1        0.0810
     29 H           4.5065    1.8071   -3.4288 H       1  UNL1        0.0654
     30 H           4.2288    4.2496   -3.7457 H       1  UNL1        0.0619
     31 H           3.7577    5.7165   -1.7993 H       1  UNL1        0.0618
     32 H           3.5765    4.7424    0.4749 H       1  UNL1        0.0626
     33 H           4.1540    0.3026    2.1774 H       1  UNL1        0.0651
     34 H           6.0318    0.9739    3.6409 H       1  UNL1        0.0825
     35 H           8.7439    1.2230    3.1678 H       1  UNL1        0.0845
     36 H           6.8136    1.0283   -0.5187 H       1  UNL1        0.1029
@<TRIPOS>BOND
     1     2     1    1
     2     3     2   ar
     3     3    24    1
     4     4     3   ar
     5     4    25    1
     6     5     4   ar
     7     6     5   ar
     8     6    26    1
     9     7     6   ar
    10     7     2   ar
    11     7    27    1
    12     9     8    1
    13    10     9    1
    14    11    10   ar
    15    11    29    1
    16    12    11   ar
    17    12    30    1
    18    13    12   ar
    19    13    31    1
    20    14    13   ar
    21    14    32    1
    22    15    14   ar
    23    15    10   ar
    24    16    15    1
    25    17    16    2
    26    18    16    1
    27    18     8    1
    28    20    19   ar
    29    20    34    1
    30    21    20   ar
    31    21    35    1
    32    22    21   ar
    33    23    22   ar
    34    23    19   ar
    35    23    36    1
    36     8    28    1
    37     8     5    1
    38    18    19    1
    39    18    33    1
@<TRIPOS>MOLECULE
mol_327_akc_jactatropica201612027
>313_4.sdf
 36 39 0 0 0
SMALL
GASTEIGER

@<TRIPOS>ATOM
      1 CL         -2.2391   -0.2205    0.0893 Cl      1  UNL1       -0.0835
      2 C          -0.5217   -0.1433    0.0604 C.ar    1  UNL1        0.0410
      3 C           0.1306    0.3228   -1.0736 C.ar    1  UNL1       -0.0430
      4 C           1.5269    0.3885   -1.0943 C.ar    1  UNL1       -0.0536
      5 C           2.2961    0.0195    0.0258 C.ar    1  UNL1       -0.0048
      6 C           1.6121   -0.4847    1.1471 C.ar    1  UNL1       -0.0536
      7 C           0.2134   -0.5571    1.1665 C.ar    1  UNL1       -0.0430
      8 C           3.8330    0.1217    0.0242 C.3     1  UNL1        0.1529
      9 O           4.3264    0.6805   -1.2127 O.3     1  UNL1       -0.4810
     10 C           4.2898    2.0476   -1.2958 C.ar    1  UNL1        0.1320
     11 C           4.3786    2.5866   -2.5792 C.ar    1  UNL1       -0.0192
     12 C           4.2844    3.9666   -2.7617 C.ar    1  UNL1       -0.0583
     13 C           4.1165    4.8106   -1.6636 C.ar    1  UNL1       -0.0609
     14 C           4.0565    4.2768   -0.3760 C.ar    1  UNL1       -0.0477
     15 C           4.1523    2.8944   -0.1975 C.ar    1  UNL1        0.0613
     16 C           4.1394    2.3124    1.1549 C.2     1  UNL1        0.1932
     17 O           3.9438    3.0175    2.1410 O.2     1  UNL1       -0.2896
     18 C           4.4343    0.8384    1.2522 C.3     1  UNL1        0.1387
     19 N           5.8600    0.6219    1.4814 N.ar    1  UNL1       -0.3223
     20 C           6.4520    0.5717    2.7192 C.ar    1  UNL1        0.0250
     21 C           7.7953    0.4181    2.4736 C.ar    1  UNL1        0.0454
     22 N           8.0332    0.3530    1.1285 N.ar    1  UNL1       -0.2440
     23 C           6.8574    0.4858    0.5574 C.ar    1  UNL1        0.0967
     24 H          -0.4354    0.6363   -1.9473 H       1  UNL1        0.0632
     25 H           1.9960    0.7398   -2.0108 H       1  UNL1        0.0622
     26 H           2.1485   -0.8360    2.0261 H       1  UNL1        0.0622
     27 H          -0.2954   -0.9384    2.0485 H       1  UNL1        0.0632
     28 H           4.1878   -0.9185    0.0250 H       1  UNL1        0.0810
     29 H           4.4986    1.9326   -3.4390 H       1  UNL1        0.0654
     30 H           4.3387    4.3859   -3.7650 H       1  UNL1        0.0619
     31 H           4.0400    5.8858   -1.8085 H       1  UNL1        0.0618
     32 H           3.9429    4.9375    0.4809 H       1  UNL1        0.0626
     33 H           3.9420    0.4692    2.1602 H       1  UNL1        0.0651
     34 H           5.8951    0.6760    3.6406 H       1  UNL1        0.0825
     35 H           8.6026    0.3580    3.1922 H       1  UNL1        0.0845
     36 H           6.7016    0.4928   -0.5133 H       1  UNL1        0.1029
@<TRIPOS>BOND
     1     2     1    1
     2     3     2   ar
     3     3    24    1
     4     4     3   ar
     5     4    25    1
     6     5     4   ar
     7     6     5   ar
     8     6    26    1
     9     7     6   ar
    10     7     2   ar
    11     7    27    1
    12     8     5    1
    13     8    28    1
    14     9     8    1
    15    10     9    1
    16    11    10   ar
    17    11    29    1
    18    12    11   ar
    19    12    30    1
    20    13    12   ar
    21    13    31    1
    22    14    13   ar
    23    14    32    1
    24    15    14   ar
    25    15    10   ar
    26    16    15    1
    27    17    16    2
    28    18    16    1
    29    18     8    1
    30    20    19   ar
    31    20    34    1
    32    21    20   ar
    33    21    35    1
    34    22    21   ar
    35    23    22   ar
    36    23    19   ar
    37    23    36    1
    38    18    19    1
    39    18    33    1
@<TRIPOS>MOLECULE
mol_328_akc_tjprv16i211
>314.sdf
 31 33 0 0 0
SMALL
GASTEIGER

@<TRIPOS>ATOM
      1 O           3.6447   -0.5847   -0.0001 O.3     1  UNL1       -0.5065
      2 C           2.3179   -0.2686    0.0119 C.ar    1  UNL1        0.1239
      3 C           1.8900    1.0549   -0.0069 C.ar    1  UNL1        0.0223
      4 C           0.5190    1.3292   -0.0015 C.ar    1  UNL1        0.1347
      5 O           0.1114    2.6325   -0.0233 O.3     1  UNL1       -0.5058
      6 C          -0.4180    0.2841    0.0166 C.ar    1  UNL1        0.1055
      7 C          -1.8812    0.5145    0.0062 C.ar    1  UNL1        0.1966
      8 O          -2.4138    1.6162    0.0371 O.2     1  UNL1       -0.2869
      9 C          -2.7339   -0.6832   -0.0536 C.ar    1  UNL1        0.0288
     10 C          -2.1678   -1.8937   -0.0360 C.ar    1  UNL1        0.1393
     11 O          -0.8097   -2.1292    0.0419 O.2     1  UNL1       -0.4544
     12 C           0.0341   -1.0407    0.0349 C.ar    1  UNL1        0.1462
     13 C           1.4037   -1.3168    0.0377 C.ar    1  UNL1        0.0231
     14 C          -3.0090   -3.0923   -0.1323 C.ar    1  UNL1        0.0211
     15 C          -3.5294   -3.7006    1.0223 C.ar    1  UNL1       -0.0474
     16 C          -4.3929   -4.7995    0.9234 C.ar    1  UNL1       -0.0159
     17 C          -4.7346   -5.2821   -0.3341 C.ar    1  UNL1        0.1583
     18 O          -5.5811   -6.3435   -0.4991 O.3     1  UNL1       -0.5033
     19 C          -4.2180   -4.6827   -1.4803 C.ar    1  UNL1        0.1589
     20 O          -4.5682   -5.1547   -2.7130 O.3     1  UNL1       -0.5033
     21 C          -3.3580   -3.5962   -1.3919 C.ar    1  UNL1       -0.0059
     22 H           4.1713    0.2293   -0.0524 H       1  UNL1        0.2921
     23 H           2.6121    1.8643   -0.0290 H       1  UNL1        0.0691
     24 H           0.8704    3.2356   -0.0118 H       1  UNL1        0.2922
     25 H          -3.8023   -0.5202   -0.1220 H       1  UNL1        0.0693
     26 H           1.7571   -2.3447    0.0507 H       1  UNL1        0.0691
     27 H          -3.2735   -3.3129    2.0067 H       1  UNL1        0.0626
     28 H          -4.7885   -5.2496    1.8284 H       1  UNL1        0.0655
     29 H          -5.8506   -6.6581    0.3812 H       1  UNL1        0.2923
     30 H          -5.1806   -5.8946   -2.5293 H       1  UNL1        0.2923
     31 H          -2.9773   -3.1403   -2.3023 H       1  UNL1        0.0662
@<TRIPOS>BOND
     1     1    22    1
     2     2     1    1
     3     3     2   ar
     4     3    23    1
     5     4     3   ar
     6     5     4    1
     7     5    24    1
     8     6     4   ar
     9     7     6   ar
    10     8     7    2
    11     9     7   ar
    12     9    25    1
    13    10     9   ar
    14    11    10   ar
    15    12    11   ar
    16    12     6   ar
    17    13    12   ar
    18    13     2   ar
    19    13    26    1
    20    14    10    1
    21    15    14   ar
    22    15    27    1
    23    16    15   ar
    24    16    28    1
    25    17    16   ar
    26    18    17    1
    27    18    29    1
    28    19    17   ar
    29    20    19    1
    30    20    30    1
    31    21    19   ar
    32    21    14   ar
    33    21    31    1
@<TRIPOS>MOLECULE
mol_329_akc_jbioorg201611013
>315.sdf
 58 63 0 0 0
SMALL
GASTEIGER

@<TRIPOS>ATOM
      1 C           5.2270    2.6443    0.6681 C.3     1  UNL1        0.0789
      2 O           4.0635    3.0571   -0.0433 O.3     1  UNL1       -0.4933
      3 C           3.7530    2.2784   -1.1375 C.ar    1  UNL1        0.1410
      4 C           2.3920    2.0144   -1.4203 C.ar    1  UNL1        0.0720
      5 C           2.1269    1.2862   -2.6013 C.ar    1  UNL1       -0.0371
      6 C           3.1380    0.8468   -3.4616 C.ar    1  UNL1       -0.0598
      7 C           4.4609    1.1280   -3.1635 C.ar    1  UNL1       -0.0582
      8 C           4.7670    1.8499   -2.0146 C.ar    1  UNL1       -0.0181
      9 N           1.3188    2.3439   -0.6002 N.pl3   1  UNL1       -0.3241
     10 C           1.4617    2.6087    0.8440 C.3     1  UNL1        0.0281
     11 C           0.2172    2.0691    1.5835 C.3     1  UNL1        0.0308
     12 N          -1.0338    2.5539    0.9867 N.am    1  UNL1       -0.2933
     13 C          -1.1400    2.3252   -0.4574 C.3     1  UNL1        0.0308
     14 C           0.0865    2.9167   -1.1832 C.3     1  UNL1        0.0281
     15 C          -2.0782    3.1897    1.6431 C.2     1  UNL1        0.2651
     16 O          -3.2210    3.1753    1.1747 O.2     1  UNL1       -0.2683
     17 C          -1.8211    4.0531    2.8513 C.ar    1  UNL1        0.1270
     18 C          -2.9368    4.6637    3.4260 C.ar    1  UNL1       -0.0214
     19 C          -2.6979    5.8339    4.1595 C.ar    1  UNL1        0.0117
     20 C          -1.3777    6.2309    4.3548 C.ar    1  UNL1        0.0744
     21 N          -1.4191    7.4833    4.9206 N.ar    1  UNL1       -0.3524
     22 C          -2.7132    7.8736    5.1563 C.ar    1  UNL1        0.0475
     23 C          -3.2092    9.0786    5.6613 C.ar    1  UNL1       -0.0378
     24 C          -4.5902    9.1774    5.8459 C.ar    1  UNL1       -0.0598
     25 C          -5.4340    8.1121    5.5380 C.ar    1  UNL1       -0.0611
     26 C          -4.9230    6.9316    4.9863 C.ar    1  UNL1       -0.0520
     27 C          -3.5350    6.8144    4.7749 C.ar    1  UNL1        0.0075
     28 C          -0.3023    5.4361    3.9622 C.ar    1  UNL1        0.1022
     29 N          -0.5356    4.3822    3.1496 N.ar    1  UNL1       -0.2395
     30 C           1.0457    5.7039    4.4566 C.ar    1  UNL1        0.0396
     31 C           1.4256    6.1840    5.7023 C.ar    1  UNL1       -0.0454
     32 C           2.8334    6.3452    5.8351 C.ar    1  UNL1       -0.0541
     33 C           3.4973    5.9473    4.6954 C.ar    1  UNL1       -0.0237
     34 S           2.4249    5.3971    3.4849 S.2     1  UNL1       -0.0951
     35 H           5.2584    1.5569    0.8022 H       1  UNL1        0.0660
     36 H           6.1346    3.0032    0.1730 H       1  UNL1        0.0660
     37 H           5.1914    3.1019    1.6613 H       1  UNL1        0.0660
     38 H           1.1073    1.0067   -2.8489 H       1  UNL1        0.0637
     39 H           2.8814    0.2814   -4.3525 H       1  UNL1        0.0618
     40 H           5.2526    0.7925   -3.8282 H       1  UNL1        0.0619
     41 H           5.8080    2.0855   -1.8239 H       1  UNL1        0.0655
     42 H           2.3271    2.0912    1.2736 H       1  UNL1        0.0479
     43 H           1.5654    3.6833    1.0096 H       1  UNL1        0.0479
     44 H           0.1935    0.9768    1.4696 H       1  UNL1        0.0480
     45 H           0.2687    2.2525    2.6578 H       1  UNL1        0.0480
     46 H          -1.1938    1.2425   -0.6194 H       1  UNL1        0.0480
     47 H          -2.0516    2.7766   -0.8621 H       1  UNL1        0.0480
     48 H           0.1049    4.0071   -1.0454 H       1  UNL1        0.0479
     49 H          -0.0156    2.7432   -2.2591 H       1  UNL1        0.0479
     50 H          -3.9458    4.3576    3.1742 H       1  UNL1        0.0647
     51 H          -0.6092    8.0662    5.0737 H       1  UNL1        0.1660
     52 H          -2.5537    9.9103    5.8980 H       1  UNL1        0.0638
     53 H          -5.0109   10.1000    6.2389 H       1  UNL1        0.0618
     54 H          -6.5036    8.2037    5.7111 H       1  UNL1        0.0618
     55 H          -5.5922    6.1161    4.7266 H       1  UNL1        0.0624
     56 H           0.7235    6.4042    6.4971 H       1  UNL1        0.0629
     57 H           3.3321    6.7163    6.7218 H       1  UNL1        0.0623
     58 H           4.5639    5.9478    4.5204 H       1  UNL1        0.0693
@<TRIPOS>BOND
     1     1    35    1
     2     1    36    1
     3     1    37    1
     4     2     1    1
     5     3     2    1
     6     4     3   ar
     7     5     4   ar
     8     5    38    1
     9     6     5   ar
    10     6    39    1
    11     7     6   ar
    12     7    40    1
    13     8     7   ar
    14     8     3   ar
    15     8    41    1
    16     9     4    1
    17    10     9    1
    18    10    42    1
    19    10    43    1
    20    11    10    1
    21    11    44    1
    22    11    45    1
    23    12    11    1
    24    13    12    1
    25    13    46    1
    26    13    47    1
    27    14    13    1
    28    14     9    1
    29    14    48    1
    30    14    49    1
    31    15    12   am
    32    16    15    2
    33    17    15    1
    34    18    17   ar
    35    18    50    1
    36    19    18   ar
    37    20    19   ar
    38    21    20   ar
    39    21    51    1
    40    22    21   ar
    41    23    22   ar
    42    23    52    1
    43    24    23   ar
    44    24    53    1
    45    25    24   ar
    46    25    54    1
    47    26    25   ar
    48    26    55    1
    49    27    26   ar
    50    27    19   ar
    51    27    22   ar
    52    28    20   ar
    53    29    28   ar
    54    29    17   ar
    55    30    28    1
    56    31    30   ar
    57    31    56    1
    58    32    31   ar
    59    32    57    1
    60    33    32   ar
    61    33    58    1
    62    34    33   ar
    63    34    30   ar
@<TRIPOS>MOLECULE
mol_32_akc_jejmech200909012
>32.sdf
 47 49 0 0 0
SMALL
GASTEIGER

@<TRIPOS>ATOM
      1 C           1.7940    2.4509   -2.7601 C.3     1  UNL1       -0.0494
      2 C           2.1737    2.0344   -1.3461 C.3     1  UNL1        0.0097
      3 N           2.9236    0.7454   -1.3239 N.pl3   1  UNL1       -0.3222
      4 C           2.4040   -0.1962   -0.2909 C.3     1  UNL1        0.0522
      5 C           1.5611   -1.2944   -0.9645 C.3     1  UNL1       -0.0193
      6 N           2.3028   -1.8488   -2.1215 N.4     1  UNL1        0.2196
      7 C           4.3336    0.8013   -1.5180 C.ar    1  UNL1        0.0736
      8 C           4.9696    1.9934   -1.9546 C.ar    1  UNL1       -0.0159
      9 C           6.3612    2.1209   -2.1416 C.ar    1  UNL1        0.0333
     10 N           6.9092    3.3263   -2.6281 N.pl3   1  UNL1       -0.3139
     11 C           8.2232    3.8204   -2.4016 C.ar    1  UNL1        0.0420
     12 C           8.8074    3.6981   -1.1398 C.ar    1  UNL1       -0.0218
     13 C          10.0949    4.1527   -0.9573 C.ar    1  UNL1        0.0300
     14 N          10.8274    4.7227   -1.9327 N.ar    1  UNL1       -0.2548
     15 C          10.2677    4.8827   -3.1399 C.ar    1  UNL1        0.0741
     16 C           8.9441    4.4756   -3.4334 C.ar    1  UNL1        0.0216
     17 C           8.4323    4.7028   -4.7323 C.ar    1  UNL1       -0.0494
     18 C           9.2185    5.3000   -5.7186 C.ar    1  UNL1       -0.0426
     19 C          10.5252    5.6638   -5.4168 C.ar    1  UNL1        0.0430
     20 CL         11.5199    6.3596   -6.6356 Cl      1  UNL1       -0.0835
     21 C          11.0357    5.4602   -4.1393 C.ar    1  UNL1       -0.0173
     22 C           7.1569    1.0022   -1.9047 C.ar    1  UNL1       -0.0370
     23 C           6.5888   -0.2007   -1.5159 C.ar    1  UNL1       -0.0166
     24 C           5.2001   -0.3100   -1.3519 C.ar    1  UNL1        0.1379
     25 O           4.7185   -1.5723   -1.0701 O.3     1  UNL1       -0.5049
     26 H           1.3800    3.4653   -2.7459 H       1  UNL1        0.0245
     27 H           2.6386    2.4411   -3.4533 H       1  UNL1        0.0245
     28 H           1.0301    1.7804   -3.1643 H       1  UNL1        0.0245
     29 H           2.7206    2.8224   -0.8144 H       1  UNL1        0.0461
     30 H           1.2290    1.9315   -0.7967 H       1  UNL1        0.0461
     31 H           3.1911   -0.6317    0.3316 H       1  UNL1        0.0516
     32 H           1.7665    0.3276    0.4320 H       1  UNL1        0.0516
     33 H           1.3362   -2.1169   -0.2805 H       1  UNL1        0.0829
     34 H           0.6303   -0.8859   -1.3700 H       1  UNL1        0.0829
     35 H           2.5438   -1.0569   -2.7397 H       1  UNL1        0.1995
     36 H           3.2289   -2.1812   -1.8053 H       1  UNL1        0.1995
     37 H           1.8168   -2.5798   -2.6446 H       1  UNL1        0.1995
     38 H           4.3926    2.8896   -2.1559 H       1  UNL1        0.0656
     39 H           6.2479    4.0858   -2.7568 H       1  UNL1        0.1522
     40 H           8.2725    3.2520   -0.3074 H       1  UNL1        0.0651
     41 H          10.5919    4.0655    0.0042 H       1  UNL1        0.0830
     42 H           7.4184    4.4041   -4.9877 H       1  UNL1        0.0625
     43 H           8.8161    5.4636   -6.7139 H       1  UNL1        0.0632
     44 H          12.0597    5.7468   -3.9106 H       1  UNL1        0.0653
     45 H           8.2338    1.0509   -2.0635 H       1  UNL1        0.0637
     46 H           7.2493   -1.0546   -1.3739 H       1  UNL1        0.0655
     47 H           5.4825   -2.0818   -0.7252 H       1  UNL1        0.2922
@<TRIPOS>UNITY_ATOM_ATTR
6 1
charge 1
@<TRIPOS>BOND
     1     1    26    1
     2     1    27    1
     3     1    28    1
     4     2     1    1
     5     2    29    1
     6     2    30    1
     7     3     2    1
     8     4     3    1
     9     4    31    1
    10     4    32    1
    11     5     4    1
    12     5    33    1
    13     5    34    1
    14     6     5    1
    15     6    35    1
    16     6    36    1
    17     6    37    1
    18     7     3    1
    19     8     7   ar
    20     8    38    1
    21     9     8   ar
    22    10     9    1
    23    10    39    1
    24    11    10    1
    25    12    11   ar
    26    12    40    1
    27    13    12   ar
    28    13    41    1
    29    14    13   ar
    30    15    14   ar
    31    16    15   ar
    32    16    11   ar
    33    17    16   ar
    34    17    42    1
    35    18    17   ar
    36    18    43    1
    37    19    18   ar
    38    20    19    1
    39    21    19   ar
    40    21    15   ar
    41    21    44    1
    42    22     9   ar
    43    22    45    1
    44    23    22   ar
    45    23    46    1
    46    24    23   ar
    47    24     7   ar
    48    25    24    1
    49    25    47    1
@<TRIPOS>MOLECULE
mol_330_akc_journalpntd0006157
>316.sdf
 74 78 0 0 0
SMALL
GASTEIGER

@<TRIPOS>ATOM
      1 C           4.0065    1.1249    0.5039 C.3     1  UNL1       -0.0648
      2 C           5.4015    1.3246   -0.0492 C.3     1  UNL1       -0.0480
      3 C           5.7239    2.6272   -0.8343 C.3     1  UNL1        0.0022
      4 C           7.2450    2.5111   -1.0973 C.3     1  UNL1       -0.0282
      5 N           7.8018    3.6195   -1.9207 N.4     1  UNL1        0.2411
      6 C           9.2811    3.3593   -2.1958 C.3     1  UNL1       -0.0272
      7 C           9.9369    4.6111   -2.7521 C.3     1  UNL1        0.0133
      8 C           9.1014    5.3159   -3.7901 C.ar    1  UNL1       -0.0302
      9 C           9.7133    6.3541   -4.5180 C.ar    1  UNL1       -0.0125
     10 C           9.0136    7.0990   -5.4730 C.ar    1  UNL1        0.1618
     11 O           9.5843    8.1145   -6.1852 O.3     1  UNL1       -0.4914
     12 C          10.9312    8.4804   -5.9034 C.3     1  UNL1        0.0790
     13 C           7.6705    6.7780   -5.7089 C.ar    1  UNL1        0.1620
     14 O           6.7928    7.3508   -6.5932 O.3     1  UNL1       -0.4914
     15 C           7.2214    8.4698   -7.3618 C.3     1  UNL1        0.0790
     16 C           7.0625    5.7344   -4.9816 C.ar    1  UNL1       -0.0075
     17 C           7.7462    5.0035   -3.9981 C.ar    1  UNL1        0.0072
     18 C           7.0927    3.8629   -3.2305 C.3     1  UNL1        0.0056
     19 C           5.5893    4.0468   -2.9333 C.3     1  UNL1       -0.0018
     20 C           4.9377    2.8647   -2.1639 C.3     1  UNL1       -0.0226
     21 C           3.4015    3.1557   -1.9815 C.3     1  UNL1       -0.0019
     22 C           2.5211    3.2271   -3.2760 C.3     1  UNL1        0.0039
     23 N           2.7332    1.9405   -4.0399 N.4     1  UNL1        0.2327
     24 C           1.8810    1.8549   -5.2684 C.3     1  UNL1       -0.0290
     25 C           0.4261    1.7592   -4.8488 C.3     1  UNL1        0.0132
     26 C           0.0571    2.8193   -3.8415 C.ar    1  UNL1       -0.0302
     27 C          -1.3087    3.1052   -3.6711 C.ar    1  UNL1       -0.0127
     28 C          -1.7299    4.0806   -2.7699 C.ar    1  UNL1        0.1587
     29 O          -3.0668    4.3229   -2.6602 O.3     1  UNL1       -0.5033
     30 C          -0.7866    4.7820   -2.0188 C.ar    1  UNL1        0.1617
     31 O          -1.0089    5.7838   -1.1078 O.3     1  UNL1       -0.4914
     32 C          -2.3527    6.1900   -0.8647 C.3     1  UNL1        0.0790
     33 C           0.5803    4.4812   -2.1736 C.ar    1  UNL1       -0.0076
     34 C           1.0316    3.4878   -3.0641 C.ar    1  UNL1        0.0071
     35 H           4.0366    0.3899    1.3165 H       1  UNL1        0.0230
     36 H           3.5888    2.0516    0.9051 H       1  UNL1        0.0230
     37 H           3.3404    0.7085   -0.2564 H       1  UNL1        0.0230
     38 H           6.0807    1.2887    0.8151 H       1  UNL1        0.0267
     39 H           5.6569    0.4514   -0.6635 H       1  UNL1        0.0267
     40 H           5.5492    3.4861   -0.1726 H       1  UNL1        0.0355
     41 H           7.7929    2.5260   -0.1472 H       1  UNL1        0.0817
     42 H           7.4780    1.5765   -1.6228 H       1  UNL1        0.0817
     43 H           7.7487    4.4921   -1.3739 H       1  UNL1        0.2040
     44 H           9.7572    3.0619   -1.2551 H       1  UNL1        0.0818
     45 H           9.3357    2.5219   -2.9026 H       1  UNL1        0.0818
     46 H          10.1257    5.3138   -1.9319 H       1  UNL1        0.0365
     47 H          10.9069    4.3335   -3.1827 H       1  UNL1        0.0365
     48 H          10.7609    6.5668   -4.3149 H       1  UNL1        0.0658
     49 H          11.0472    8.7911   -4.8595 H       1  UNL1        0.0660
     50 H          11.6180    7.6649   -6.1529 H       1  UNL1        0.0660
     51 H          11.1862    9.3365   -6.5347 H       1  UNL1        0.0660
     52 H           7.5008    9.3106   -6.7191 H       1  UNL1        0.0660
     53 H           8.0231    8.1917   -8.0527 H       1  UNL1        0.0660
     54 H           6.3715    8.7963   -7.9693 H       1  UNL1        0.0660
     55 H           6.0234    5.5260   -5.2251 H       1  UNL1        0.0660
     56 H           7.2175    2.9480   -3.8265 H       1  UNL1        0.0904
     57 H           5.0584    4.1631   -3.8824 H       1  UNL1        0.0326
     58 H           5.4363    4.9785   -2.3714 H       1  UNL1        0.0326
     59 H           5.0551    1.9550   -2.7634 H       1  UNL1        0.0309
     60 H           2.9473    2.3955   -1.3488 H       1  UNL1        0.0326
     61 H           3.3076    4.0969   -1.4255 H       1  UNL1        0.0326
     62 H           2.8942    4.0246   -3.9292 H       1  UNL1        0.0904
     63 H           2.4917    1.1506   -3.4247 H       1  UNL1        0.2020
     64 H           3.7062    1.8241   -4.3288 H       1  UNL1        0.2020
     65 H           2.0913    2.7439   -5.8730 H       1  UNL1        0.0817
     66 H           2.1975    0.9629   -5.8173 H       1  UNL1        0.0817
     67 H          -0.2029    1.8493   -5.7418 H       1  UNL1        0.0365
     68 H           0.2316    0.7772   -4.3999 H       1  UNL1        0.0365
     69 H          -2.0470    2.5646   -4.2629 H       1  UNL1        0.0658
     70 H          -3.5765    3.7632   -3.2666 H       1  UNL1        0.2923
     71 H          -2.8150    6.6016   -1.7678 H       1  UNL1        0.0660
     72 H          -2.9418    5.3730   -0.4362 H       1  UNL1        0.0660
     73 H          -2.3264    6.9930   -0.1219 H       1  UNL1        0.0660
     74 H           1.2804    5.0683   -1.5827 H       1  UNL1        0.0660
@<TRIPOS>UNITY_ATOM_ATTR
5 1
charge 1
23 1
charge 1
@<TRIPOS>BOND
     1     1    35    1
     2     1    36    1
     3     1    37    1
     4     2     1    1
     5     2    38    1
     6     2    39    1
     7     3     2    1
     8     3    40    1
     9     4     3    1
    10     4    41    1
    11     4    42    1
    12     5     4    1
    13     5    43    1
    14     6     5    1
    15     6    44    1
    16     6    45    1
    17     7     6    1
    18     7    46    1
    19     7    47    1
    20     8     7    1
    21     9     8   ar
    22     9    48    1
    23    10     9   ar
    24    11    10    1
    25    12    11    1
    26    12    49    1
    27    12    50    1
    28    12    51    1
    29    13    10   ar
    30    14    13    1
    31    15    14    1
    32    15    52    1
    33    15    53    1
    34    15    54    1
    35    16    13   ar
    36    16    55    1
    37    17    16   ar
    38    17     8   ar
    39    18    17    1
    40    18     5    1
    41    18    56    1
    42    19    18    1
    43    19    57    1
    44    19    58    1
    45    20    19    1
    46    20     3    1
    47    20    59    1
    48    21    20    1
    49    21    60    1
    50    21    61    1
    51    23    22    1
    52    23    63    1
    53    23    64    1
    54    24    23    1
    55    24    65    1
    56    24    66    1
    57    25    24    1
    58    25    67    1
    59    25    68    1
    60    26    25    1
    61    27    26   ar
    62    27    69    1
    63    28    27   ar
    64    29    28    1
    65    29    70    1
    66    30    28   ar
    67    31    30    1
    68    32    31    1
    69    32    71    1
    70    32    72    1
    71    32    73    1
    72    33    30   ar
    73    33    74    1
    74    34    33   ar
    75    34    22    1
    76    34    26   ar
    77    22    62    1
    78    22    21    1
@<TRIPOS>MOLECULE
mol_331_akc_journalpntd0006157
>317.sdf
 43 46 0 0 0
SMALL
GASTEIGER

@<TRIPOS>ATOM
      1 F           1.6157    5.2514    0.0275 F       1  UNL1       -0.2035
      2 C           0.5258    4.7755    0.6490 C.ar    1  UNL1        0.1445
      3 C           0.2352    3.4031    0.6357 C.ar    1  UNL1        0.0692
      4 N           1.0455    2.4328    0.0150 N.pl3   1  UNL1       -0.2812
      5 C           2.4432    2.4297   -0.0448 C.ar    1  UNL1        0.2218
      6 N           3.1553    3.0236    0.9164 N.ar    1  UNL1       -0.1988
      7 C           4.4940    2.9945    0.8365 C.ar    1  UNL1        0.1318
      8 N           5.0644    3.7757    1.8166 N.pl3   1  UNL1       -0.3243
      9 C           6.2150    3.3922    2.6087 C.3     1  UNL1        0.0357
     10 C           7.2679    4.4845    2.5644 C.ar    1  UNL1       -0.0304
     11 C           8.2460    4.5506    3.5678 C.ar    1  UNL1       -0.0571
     12 C           9.2309    5.5419    3.5381 C.ar    1  UNL1       -0.0615
     13 C           9.2593    6.4743    2.5025 C.ar    1  UNL1       -0.0617
     14 C           8.3065    6.4146    1.4906 C.ar    1  UNL1       -0.0615
     15 C           7.3257    5.4261    1.5200 C.ar    1  UNL1       -0.0571
     16 C           5.1650    2.3278   -0.2025 C.ar    1  UNL1        0.0402
     17 C           6.5714    2.2473   -0.4101 C.ar    1  UNL1       -0.0493
     18 C           7.1124    1.5361   -1.4801 C.ar    1  UNL1       -0.0610
     19 C           6.2623    0.9229   -2.3845 C.ar    1  UNL1       -0.0597
     20 C           4.8812    1.0271   -2.2086 C.ar    1  UNL1       -0.0355
     21 C           4.3198    1.7130   -1.1360 C.ar    1  UNL1        0.0779
     22 N           2.9862    1.7617   -1.0658 N.ar    1  UNL1       -0.2141
     23 C          -0.9812    2.9870    1.1955 C.ar    1  UNL1       -0.0377
     24 C          -1.8361    3.9007    1.8203 C.ar    1  UNL1       -0.0598
     25 C          -1.5022    5.2531    1.8662 C.ar    1  UNL1       -0.0589
     26 C          -0.3234    5.6928    1.2683 C.ar    1  UNL1       -0.0246
     27 H           0.7102    2.1438   -0.8950 H       1  UNL1        0.1551
     28 H           4.2960    4.1219    2.3886 H       1  UNL1        0.1478
     29 H           5.8830    3.2708    3.6476 H       1  UNL1        0.0511
     30 H           6.6520    2.4334    2.3128 H       1  UNL1        0.0511
     31 H           8.2431    3.8341    4.3868 H       1  UNL1        0.0621
     32 H           9.9774    5.5889    4.3283 H       1  UNL1        0.0618
     33 H          10.0221    7.2482    2.4833 H       1  UNL1        0.0618
     34 H           8.3211    7.1369    0.6802 H       1  UNL1        0.0618
     35 H           6.5877    5.4033    0.7184 H       1  UNL1        0.0621
     36 H           7.2642    2.7459    0.2581 H       1  UNL1        0.0625
     37 H           8.1903    1.4725   -1.6054 H       1  UNL1        0.0618
     38 H           6.6638    0.3740   -3.2320 H       1  UNL1        0.0618
     39 H           4.2204    0.5606   -2.9363 H       1  UNL1        0.0639
     40 H          -1.2509    1.9337    1.1763 H       1  UNL1        0.0637
     41 H          -2.7598    3.5522    2.2758 H       1  UNL1        0.0618
     42 H          -2.1626    5.9628    2.3574 H       1  UNL1        0.0618
     43 H          -0.0581    6.7452    1.2721 H       1  UNL1        0.0647
@<TRIPOS>BOND
     1     2     1    1
     2     3     2   ar
     3     4     3    1
     4     4    27    1
     5     5     4    1
     6     6     5   ar
     7     7     6   ar
     8     8     7    1
     9     8    28    1
    10     9     8    1
    11     9    29    1
    12     9    30    1
    13    10     9    1
    14    11    10   ar
    15    11    31    1
    16    12    11   ar
    17    12    32    1
    18    13    12   ar
    19    13    33    1
    20    14    13   ar
    21    14    34    1
    22    15    14   ar
    23    15    10   ar
    24    15    35    1
    25    16     7   ar
    26    17    16   ar
    27    17    36    1
    28    18    17   ar
    29    18    37    1
    30    19    18   ar
    31    19    38    1
    32    20    19   ar
    33    20    39    1
    34    21    20   ar
    35    21    16   ar
    36    22    21   ar
    37    22     5   ar
    38    23     3   ar
    39    23    40    1
    40    24    23   ar
    41    24    41    1
    42    25    24   ar
    43    25    42    1
    44    26    25   ar
    45    26     2   ar
    46    26    43    1
@<TRIPOS>MOLECULE
mol_332_akc_journalpntd0006157
>318.sdf
 53 56 0 0 0
SMALL
GASTEIGER

@<TRIPOS>ATOM
      1 C           5.5428   -8.8894  -11.0676 C.3     1  UNL1        0.0788
      2 O           6.7357   -8.5429  -10.3726 O.3     1  UNL1       -0.4951
      3 C           6.5778   -7.8585   -9.1987 C.ar    1  UNL1        0.1202
      4 C           5.3623   -7.4480   -8.6591 C.ar    1  UNL1       -0.0182
      5 C           5.3327   -6.7571   -7.4455 C.ar    1  UNL1       -0.0371
      6 C           6.5057   -6.4937   -6.7293 C.ar    1  UNL1        0.0326
      7 N           6.4897   -5.7239   -5.5354 N.pl3   1  UNL1       -0.2993
      8 C           5.4829   -5.8387   -4.5399 C.ar    1  UNL1        0.1280
      9 N           4.7549   -6.9629   -4.4602 N.ar    1  UNL1       -0.1992
     10 C           3.9047   -7.1353   -3.4368 C.ar    1  UNL1        0.2212
     11 N           3.1701   -8.3225   -3.3541 N.pl3   1  UNL1       -0.2836
     12 C           2.8593   -9.2012   -4.3982 C.ar    1  UNL1        0.0337
     13 C           2.7927  -10.5850   -4.1966 C.ar    1  UNL1       -0.0387
     14 C           2.5865  -11.4602   -5.2763 C.ar    1  UNL1       -0.0376
     15 C           2.4567  -10.9506   -6.5664 C.ar    1  UNL1        0.0482
     16 N           2.2927  -11.8016   -7.6915 N.pl3   1  UNL1       -0.2163
     17 S           0.7314  -12.1945   -8.2040 S.O2    1  UNL1        0.0723
     18 O           0.8774  -13.0501   -9.3554 O.2     1  UNL1       -0.1500
     19 O          -0.0335  -12.6111   -7.0475 O.2     1  UNL1       -0.1500
     20 C           0.0970  -10.6366   -8.7773 C.ar    1  UNL1        0.1086
     21 C           0.7034  -10.0107   -9.8727 C.ar    1  UNL1       -0.0337
     22 C           0.2793   -8.7351  -10.2529 C.ar    1  UNL1       -0.0415
     23 C          -0.7564   -8.1101   -9.5545 C.ar    1  UNL1        0.0411
     24 CL         -1.2531   -6.5260  -10.0056 Cl      1  UNL1       -0.0835
     25 C          -1.3823   -8.7517   -8.4846 C.ar    1  UNL1       -0.0415
     26 C          -0.9566  -10.0219   -8.0926 C.ar    1  UNL1       -0.0337
     27 C           2.4741   -9.5782   -6.7719 C.ar    1  UNL1       -0.0376
     28 C           2.6584   -8.7172   -5.6960 C.ar    1  UNL1       -0.0387
     29 N           3.7400   -6.2282   -2.4671 N.ar    1  UNL1       -0.2225
     30 C           4.4377   -5.0834   -2.5929 C.ar    1  UNL1        0.0344
     31 C           5.3442   -4.8440   -3.5989 C.ar    1  UNL1       -0.0033
     32 C           7.7262   -6.8637   -7.2998 C.ar    1  UNL1       -0.0371
     33 C           7.7596   -7.5553   -8.5175 C.ar    1  UNL1       -0.0182
     34 H           4.8986   -9.5307  -10.4560 H       1  UNL1        0.0660
     35 H           5.0066   -7.9928  -11.3970 H       1  UNL1        0.0660
     36 H           5.8234   -9.4559  -11.9603 H       1  UNL1        0.0660
     37 H           4.4162   -7.6424   -9.1506 H       1  UNL1        0.0655
     38 H           4.3728   -6.4335   -7.0548 H       1  UNL1        0.0637
     39 H           6.6049   -4.7490   -5.7968 H       1  UNL1        0.1536
     40 H           3.1140   -8.6472   -2.4027 H       1  UNL1        0.1550
     41 H           2.9248  -11.0015   -3.2001 H       1  UNL1        0.0637
     42 H           2.5421  -12.5305   -5.0977 H       1  UNL1        0.0637
     43 H           2.9326  -12.5892   -7.7867 H       1  UNL1        0.1737
     44 H           1.5222  -10.4932  -10.4011 H       1  UNL1        0.0638
     45 H           0.7652   -8.2275  -11.0826 H       1  UNL1        0.0633
     46 H          -2.1892   -8.2634   -7.9434 H       1  UNL1        0.0633
     47 H          -1.4292  -10.5093   -7.2414 H       1  UNL1        0.0638
     48 H           2.3763   -9.1530   -7.7651 H       1  UNL1        0.0637
     49 H           2.6600   -7.6471   -5.8830 H       1  UNL1        0.0637
     50 H           4.2438   -4.3375   -1.8275 H       1  UNL1        0.0832
     51 H           5.9093   -3.9251   -3.6389 H       1  UNL1        0.0667
     52 H           8.6579   -6.6442   -6.7854 H       1  UNL1        0.0637
     53 H           8.7151   -7.8617   -8.9356 H       1  UNL1        0.0655
@<TRIPOS>BOND
     1     1    34    1
     2     1    35    1
     3     1    36    1
     4     2     1    1
     5     3     2    1
     6     4     3   ar
     7     4    37    1
     8     5     4   ar
     9     5    38    1
    10     6     5   ar
    11     7     6    1
    12     7    39    1
    13     8     7    1
    14     9     8   ar
    15    10     9   ar
    16    11    10    1
    17    11    40    1
    18    12    11    1
    19    13    12   ar
    20    13    41    1
    21    14    13   ar
    22    14    42    1
    23    15    14   ar
    24    16    15    1
    25    16    43    1
    26    17    16    1
    27    18    17    2
    28    19    17    2
    29    20    17    1
    30    21    20   ar
    31    21    44    1
    32    22    21   ar
    33    22    45    1
    34    23    22   ar
    35    24    23    1
    36    25    23   ar
    37    25    46    1
    38    26    25   ar
    39    26    20   ar
    40    26    47    1
    41    27    15   ar
    42    27    48    1
    43    28    27   ar
    44    28    12   ar
    45    28    49    1
    46    29    10   ar
    47    30    29   ar
    48    30    50    1
    49    31    30   ar
    50    31     8   ar
    51    31    51    1
    52    32     6   ar
    53    32    52    1
    54    33    32   ar
    55    33     3   ar
    56    33    53    1
@<TRIPOS>MOLECULE
mol_333_akc_journalpntd0006157
>319.sdf
 61 64 0 0 0
SMALL
GASTEIGER

@<TRIPOS>ATOM
      1 C           0.6616   -2.3633   -6.8652 C.3     1  UNL1        0.0790
      2 O           0.6485   -2.0270   -5.4783 O.3     1  UNL1       -0.4915
      3 C           1.7993   -1.4864   -4.9730 C.ar    1  UNL1        0.1615
      4 C           3.0603   -1.7566   -5.5328 C.ar    1  UNL1       -0.0157
      5 C           4.1918   -1.0236   -5.1590 C.ar    1  UNL1       -0.0501
      6 C           4.0751   -0.0304   -4.1909 C.ar    1  UNL1       -0.0070
      7 C           2.8642    0.0775   -3.4810 C.ar    1  UNL1       -0.0084
      8 C           1.7132   -0.6051   -3.8876 C.ar    1  UNL1        0.1621
      9 O           0.6123   -0.1834   -3.1885 O.3     1  UNL1       -0.4914
     10 C          -0.6543   -0.7454   -3.4987 C.3     1  UNL1        0.0790
     11 C           4.8424    1.2301   -4.3559 C.ar    1  UNL1        0.0765
     12 C           5.1114    2.0427   -3.3069 C.ar    1  UNL1        0.2195
     13 O           4.7065    3.3926   -3.3145 O.2     1  UNL1       -0.4493
     14 C           3.6392    3.6950   -4.1419 C.ar    1  UNL1        0.1509
     15 C           3.5282    3.0481   -5.3693 C.ar    1  UNL1        0.0653
     16 C           2.5009    3.3267   -6.2627 C.ar    1  UNL1       -0.0439
     17 C           1.5516    4.2828   -5.9107 C.ar    1  UNL1       -0.0188
     18 C           1.6594    4.9373   -4.6807 C.ar    1  UNL1        0.1286
     19 O           0.7570    5.9033   -4.3333 O.3     1  UNL1       -0.5062
     20 C           2.6934    4.6548   -3.7741 C.ar    1  UNL1        0.0811
     21 C           2.7668    5.3825   -2.4679 C.3     1  UNL1        0.0016
     22 N           3.3316    6.7898   -2.6088 N.4     1  UNL1        0.2461
     23 C           4.7246    6.8676   -3.2182 C.3     1  UNL1        0.0098
     24 C           5.7962    6.3475   -2.2306 C.3     1  UNL1        0.0092
     25 N           5.7255    7.0545   -0.8807 N.4     1  UNL1        0.2405
     26 C           6.5003    8.3506   -0.8558 C.3     1  UNL1       -0.0427
     27 C           4.3170    7.1620   -0.2916 C.3     1  UNL1        0.0092
     28 C           3.2511    7.6077   -1.3307 C.3     1  UNL1        0.0098
     29 C           4.4891    1.9738   -5.6054 C.ar    1  UNL1        0.2007
     30 O           4.9037    1.6945   -6.7109 O.2     1  UNL1       -0.2864
     31 C           5.7327    1.5910   -2.0169 C.3     1  UNL1        0.4511
     32 F           5.8836    2.6667   -1.1826 F       1  UNL1       -0.1632
     33 F           4.9939    0.6878   -1.3405 F       1  UNL1       -0.1632
     34 F           6.9723    1.0839   -2.2015 F       1  UNL1       -0.1632
     35 H           1.1793   -1.6117   -7.4734 H       1  UNL1        0.0660
     36 H           1.1049   -3.3533   -7.0053 H       1  UNL1        0.0660
     37 H          -0.3761   -2.4025   -7.2122 H       1  UNL1        0.0660
     38 H           3.1715   -2.4778   -6.3390 H       1  UNL1        0.0655
     39 H           5.1056   -1.1363   -5.7409 H       1  UNL1        0.0625
     40 H           2.7372    0.8277   -2.7021 H       1  UNL1        0.0661
     41 H          -0.9921   -0.4217   -4.4889 H       1  UNL1        0.0660
     42 H          -0.6491   -1.8338   -3.3958 H       1  UNL1        0.0660
     43 H          -1.3715   -0.3531   -2.7703 H       1  UNL1        0.0660
     44 H           2.4235    2.7820   -7.2031 H       1  UNL1        0.0627
     45 H           0.7378    4.4924   -6.6021 H       1  UNL1        0.0654
     46 H          -0.0119    5.8383   -4.9395 H       1  UNL1        0.2922
     47 H           1.7665    5.4815   -2.0285 H       1  UNL1        0.0870
     48 H           3.3775    4.8476   -1.7337 H       1  UNL1        0.0870
     49 H           2.6763    7.2240   -3.2862 H       1  UNL1        0.2041
     50 H           4.7315    6.3114   -4.1586 H       1  UNL1        0.0868
     51 H           4.8937    7.9237   -3.4559 H       1  UNL1        0.0868
     52 H           5.6535    5.2879   -2.0094 H       1  UNL1        0.0868
     53 H           6.8052    6.4798   -2.6323 H       1  UNL1        0.0868
     54 H           6.2504    6.4484   -0.2264 H       1  UNL1        0.2035
     55 H           6.5064    8.7175    0.1736 H       1  UNL1        0.0778
     56 H           7.5223    8.1322   -1.1768 H       1  UNL1        0.0778
     57 H           6.0160    9.0586   -1.5307 H       1  UNL1        0.0778
     58 H           4.3581    7.8550    0.5532 H       1  UNL1        0.0868
     59 H           4.0775    6.1645    0.0906 H       1  UNL1        0.0868
     60 H           3.4117    8.6516   -1.6258 H       1  UNL1        0.0868
     61 H           2.2359    7.5111   -0.9324 H       1  UNL1        0.0868
@<TRIPOS>UNITY_ATOM_ATTR
22 1
charge 1
25 1
charge 1
@<TRIPOS>BOND
     1     1    35    1
     2     1    36    1
     3     1    37    1
     4     2     1    1
     5     3     2    1
     6     4     3   ar
     7     4    38    1
     8     5     4   ar
     9     5    39    1
    10     6     5   ar
    11     7     6   ar
    12     7    40    1
    13     8     7   ar
    14     8     3   ar
    15     9     8    1
    16    10     9    1
    17    10    41    1
    18    10    42    1
    19    10    43    1
    20    11     6    1
    21    12    11   ar
    22    13    12   ar
    23    14    13   ar
    24    15    14   ar
    25    16    15   ar
    26    16    44    1
    27    17    16   ar
    28    17    45    1
    29    18    17   ar
    30    19    18    1
    31    19    46    1
    32    20    18   ar
    33    20    14   ar
    34    21    20    1
    35    21    47    1
    36    21    48    1
    37    22    21    1
    38    22    49    1
    39    23    22    1
    40    23    50    1
    41    23    51    1
    42    24    23    1
    43    24    52    1
    44    24    53    1
    45    25    24    1
    46    26    55    1
    47    26    56    1
    48    26    57    1
    49    27    25    1
    50    27    58    1
    51    27    59    1
    52    28    27    1
    53    28    22    1
    54    28    60    1
    55    28    61    1
    56    29    15   ar
    57    29    11   ar
    58    30    29    2
    59    31    12    1
    60    32    31    1
    61    33    31    1
    62    34    31    1
    63    25    26    1
    64    25    54    1
@<TRIPOS>MOLECULE
mol_334_akc_journalpntd0006157
>320.sdf
 61 65 0 0 0
SMALL
GASTEIGER

@<TRIPOS>ATOM
      1 C           0.1532    1.1459    3.3585 C.3     1  UNL1       -0.0430
      2 N          -0.0916    0.5569    1.9998 N.4     1  UNL1        0.2353
      3 C          -1.1789   -0.5224    2.0451 C.3     1  UNL1       -0.0160
      4 C          -1.4281   -1.0903    0.6272 C.3     1  UNL1        0.0525
      5 N          -1.7845    0.0064   -0.3006 N.pl3   1  UNL1       -0.3180
      6 C          -0.7327    1.0401   -0.4120 C.3     1  UNL1        0.0525
      7 C          -0.4265    1.6415    0.9795 C.3     1  UNL1       -0.0160
      8 C          -2.8708   -0.0375   -1.1674 C.ar    1  UNL1        0.0620
      9 C          -2.7660    0.5387   -2.4552 C.ar    1  UNL1       -0.0193
     10 C          -3.8233    0.5652   -3.3885 C.ar    1  UNL1        0.0550
     11 CL         -3.5245    1.3750   -4.8838 Cl      1  UNL1       -0.0827
     12 C          -5.0453   -0.0242   -3.0734 C.ar    1  UNL1        0.0576
     13 C          -5.2024   -0.6069   -1.8135 C.ar    1  UNL1       -0.0161
     14 C          -4.1430   -0.5981   -0.8904 C.ar    1  UNL1        0.1479
     15 N          -4.4728   -1.1258    0.4144 N.pl3   1  UNL1        0.0583
     16 O          -4.3524   -0.3699    1.3903 O.2     1  UNL1       -0.1261
     17 O          -4.8036   -2.3225    0.4778 O.2     1  UNL1       -0.1261
     18 C          -6.2226   -0.0837   -3.9760 C.2     1  UNL1        0.2497
     19 O          -7.3296    0.0500   -3.4648 O.2     1  UNL1       -0.2698
     20 N          -5.9540   -0.4436   -5.2797 N.am    1  UNL1       -0.2812
     21 C          -6.9337   -0.8425   -6.2131 C.ar    1  UNL1        0.0372
     22 C          -6.6455   -1.8888   -7.1070 C.ar    1  UNL1       -0.0292
     23 C          -5.3621   -2.6758   -7.0896 C.3     1  UNL1       -0.0380
     24 C          -7.6326   -2.2827   -8.0234 C.ar    1  UNL1       -0.0564
     25 C          -8.8796   -1.6541   -8.0503 C.ar    1  UNL1       -0.0517
     26 C          -9.1724   -0.6014   -7.1749 C.ar    1  UNL1        0.0089
     27 C          -8.1876   -0.2146   -6.2516 C.ar    1  UNL1       -0.0305
     28 C         -10.4987    0.0376   -7.2323 C.ar    1  UNL1        0.1095
     29 N         -11.6043   -0.5900   -7.5810 N.ar    1  UNL1       -0.2390
     30 C         -12.6873    0.2717   -7.5160 C.ar    1  UNL1        0.0789
     31 C         -12.3846    1.5849   -7.1583 C.ar    1  UNL1        0.0395
     32 S         -10.6917    1.7155   -6.8981 S.2     1  UNL1       -0.0672
     33 C         -13.3757    2.5748   -7.0511 C.ar    1  UNL1       -0.0459
     34 C         -14.7023    2.2127   -7.3036 C.ar    1  UNL1       -0.0606
     35 C         -15.0292    0.9080   -7.6590 C.ar    1  UNL1       -0.0597
     36 C         -14.0317   -0.0668   -7.7729 C.ar    1  UNL1       -0.0352
     37 H           0.4285    0.3352    4.0367 H       1  UNL1        0.0778
     38 H           0.9765    1.8601    3.2728 H       1  UNL1        0.0778
     39 H          -0.7606    1.6449    3.6943 H       1  UNL1        0.0778
     40 H           0.7781    0.1006    1.6968 H       1  UNL1        0.2032
     41 H          -0.8233   -1.3061    2.7210 H       1  UNL1        0.0830
     42 H          -2.0723   -0.0485    2.4610 H       1  UNL1        0.0830
     43 H          -0.5053   -1.5618    0.2644 H       1  UNL1        0.0516
     44 H          -2.1631   -1.8953    0.6680 H       1  UNL1        0.0516
     45 H           0.1740    0.5858   -0.8311 H       1  UNL1        0.0516
     46 H          -1.0179    1.8753   -1.0585 H       1  UNL1        0.0516
     47 H          -1.2971    2.1858    1.3638 H       1  UNL1        0.0830
     48 H           0.4378    2.3118    0.9270 H       1  UNL1        0.0830
     49 H          -1.8251    0.9809   -2.7812 H       1  UNL1        0.0651
     50 H          -6.1603   -1.0582   -1.5469 H       1  UNL1        0.0649
     51 H          -4.9953   -0.6563   -5.5186 H       1  UNL1        0.1551
     52 H          -5.5843   -3.7487   -7.0914 H       1  UNL1        0.0278
     53 H          -4.7572   -2.4317   -7.9677 H       1  UNL1        0.0278
     54 H          -4.7588   -2.4995   -6.1961 H       1  UNL1        0.0278
     55 H          -7.4468   -3.1077   -8.7089 H       1  UNL1        0.0621
     56 H          -9.6327   -1.9964   -8.7593 H       1  UNL1        0.0624
     57 H          -8.3978    0.5952   -5.5571 H       1  UNL1        0.0643
     58 H         -13.1215    3.5932   -6.7733 H       1  UNL1        0.0629
     59 H         -15.4878    2.9614   -7.2186 H       1  UNL1        0.0618
     60 H         -16.0662    0.6407   -7.8498 H       1  UNL1        0.0618
     61 H         -14.2833   -1.0860   -8.0503 H       1  UNL1        0.0639
@<TRIPOS>UNITY_ATOM_ATTR
2 1
charge 1
@<TRIPOS>BOND
     1     1    37    1
     2     1    38    1
     3     1    39    1
     4     2     1    1
     5     2    40    1
     6     3     2    1
     7     3    41    1
     8     3    42    1
     9     4     3    1
    10     4    43    1
    11     4    44    1
    12     5     4    1
    13     6     5    1
    14     6    45    1
    15     6    46    1
    16     7     6    1
    17     7     2    1
    18     7    47    1
    19     7    48    1
    20     8     5    1
    21     9     8   ar
    22     9    49    1
    23    10     9   ar
    24    11    10    1
    25    12    10   ar
    26    13    12   ar
    27    13    50    1
    28    14    13   ar
    29    14     8   ar
    30    15    14    1
    31    16    15    2
    32    17    15    2
    33    18    12    1
    34    19    18    2
    35    20    18   am
    36    20    51    1
    37    21    20    1
    38    22    21   ar
    39    23    22    1
    40    23    52    1
    41    23    53    1
    42    23    54    1
    43    24    22   ar
    44    24    55    1
    45    25    24   ar
    46    25    56    1
    47    26    25   ar
    48    27    26   ar
    49    27    21   ar
    50    27    57    1
    51    28    26    1
    52    29    28   ar
    53    30    29   ar
    54    31    30   ar
    55    32    31   ar
    56    32    28   ar
    57    33    31   ar
    58    33    58    1
    59    34    33   ar
    60    34    59    1
    61    35    34   ar
    62    35    60    1
    63    36    35   ar
    64    36    30   ar
    65    36    61    1
@<TRIPOS>MOLECULE
mol_335_akc_journalpntd0006157
>321.sdf
 47 49 0 0 0
SMALL
GASTEIGER

@<TRIPOS>ATOM
      1 C           0.8690   -0.6180   -1.7035 C.3     1  UNL1       -0.0494
      2 C           2.0741   -0.2135   -0.8665 C.3     1  UNL1        0.0093
      3 N           2.6417   -1.3782   -0.1567 N.pl3   1  UNL1       -0.3304
      4 C           2.1521   -1.5803    1.2379 C.3     1  UNL1        0.0093
      5 C           0.6759   -1.9316    1.3041 C.3     1  UNL1       -0.0494
      6 C           4.0676   -1.4232   -0.1151 C.ar    1  UNL1        0.0297
      7 C           4.8787   -0.2838   -0.1854 C.ar    1  UNL1       -0.0403
      8 C           6.2346   -0.3505    0.1487 C.ar    1  UNL1       -0.0535
      9 C           6.8057   -1.5423    0.6152 C.ar    1  UNL1       -0.0091
     10 C           6.0412   -2.7165    0.5165 C.ar    1  UNL1       -0.0535
     11 C           4.6977   -2.6535    0.1418 C.ar    1  UNL1       -0.0403
     12 C           8.0488   -1.5383    1.5351 C.3     1  UNL1        0.1160
     13 N           7.4832   -1.5890    2.9095 N.pl3   1  UNL1       -0.3093
     14 C           8.0903   -2.4883    3.8668 C.3     1  UNL1        0.0027
     15 C           7.5122   -0.2283    3.2808 C.ar    1  UNL1        0.0524
     16 C           8.3074    0.5188    2.4070 C.ar    1  UNL1        0.0524
     17 C           8.3988    1.8954    2.5086 C.ar    1  UNL1       -0.0388
     18 C           7.6303    2.5285    3.4874 C.ar    1  UNL1       -0.0599
     19 C           6.8224    1.7790    4.3618 C.ar    1  UNL1       -0.0599
     20 C           6.7755    0.3844    4.2745 C.ar    1  UNL1       -0.0388
     21 N           8.8610   -0.2972    1.3729 N.pl3   1  UNL1       -0.3093
     22 C          10.2961   -0.4651    1.5827 C.3     1  UNL1        0.0027
     23 H           0.5584    0.2215   -2.3341 H       1  UNL1        0.0245
     24 H           1.1120   -1.4638   -2.3534 H       1  UNL1        0.0245
     25 H           0.0100   -0.8982   -1.0915 H       1  UNL1        0.0245
     26 H           2.7871    0.2088   -1.5842 H       1  UNL1        0.0461
     27 H           1.8054    0.5852   -0.1642 H       1  UNL1        0.0461
     28 H           2.6799   -2.4126    1.7222 H       1  UNL1        0.0461
     29 H           2.3458   -0.6856    1.8447 H       1  UNL1        0.0461
     30 H           0.0510   -1.0574    1.1006 H       1  UNL1        0.0245
     31 H           0.4209   -2.7242    0.5936 H       1  UNL1        0.0245
     32 H           0.4186   -2.2807    2.3099 H       1  UNL1        0.0245
     33 H           4.4678    0.6996   -0.3734 H       1  UNL1        0.0636
     34 H           6.7953    0.5813    0.1779 H       1  UNL1        0.0622
     35 H           6.4465   -3.6651    0.8649 H       1  UNL1        0.0622
     36 H           4.1012   -3.5627    0.1567 H       1  UNL1        0.0636
     37 H           8.6489   -2.4285    1.3024 H       1  UNL1        0.0762
     38 H           8.1350   -3.5009    3.4509 H       1  UNL1        0.0428
     39 H           9.1076   -2.1862    4.1366 H       1  UNL1        0.0428
     40 H           7.4849   -2.5431    4.7777 H       1  UNL1        0.0428
     41 H           8.9843    2.4682    1.7990 H       1  UNL1        0.0637
     42 H           7.6259    3.6140    3.5490 H       1  UNL1        0.0618
     43 H           6.1963    2.2925    5.0873 H       1  UNL1        0.0618
     44 H           6.1124   -0.1925    4.9083 H       1  UNL1        0.0637
     45 H          10.5232   -0.9512    2.5406 H       1  UNL1        0.0428
     46 H          10.7166   -1.0858    0.7846 H       1  UNL1        0.0428
     47 H          10.8184    0.4978    1.5523 H       1  UNL1        0.0428
@<TRIPOS>BOND
     1     1    23    1
     2     1    24    1
     3     1    25    1
     4     2     1    1
     5     2    26    1
     6     2    27    1
     7     3     2    1
     8     4     3    1
     9     4    28    1
    10     4    29    1
    11     5     4    1
    12     5    30    1
    13     5    31    1
    14     5    32    1
    15     6     3    1
    16     7     6   ar
    17     7    33    1
    18     8     7   ar
    19     8    34    1
    20     9     8   ar
    21    10     9   ar
    22    10    35    1
    23    11    10   ar
    24    11     6   ar
    25    11    36    1
    26    12     9    1
    27    12    37    1
    28    13    12    1
    29    14    13    1
    30    14    38    1
    31    14    39    1
    32    14    40    1
    33    15    13    1
    34    16    15   ar
    35    17    16   ar
    36    17    41    1
    37    18    17   ar
    38    18    42    1
    39    19    18   ar
    40    19    43    1
    41    20    19   ar
    42    20    15   ar
    43    20    44    1
    44    21    16    1
    45    21    12    1
    46    22    21    1
    47    22    45    1
    48    22    46    1
    49    22    47    1
@<TRIPOS>MOLECULE
mol_336_akc_journalpntd0006157
>322.sdf
 52 54 0 0 0
SMALL
GASTEIGER

@<TRIPOS>ATOM
      1 C           3.9195    0.2756   -2.6189 C.3     1  UNL1       -0.0653
      2 C           5.3114    0.0349   -2.0577 C.3     1  UNL1       -0.0559
      3 C           5.8243    1.2638   -1.3134 C.3     1  UNL1       -0.0533
      4 C           7.2276    1.0347   -0.7504 C.3     1  UNL1       -0.0531
      5 C           7.7004    2.2775   -0.0012 C.3     1  UNL1       -0.0530
      6 C           9.0858    2.0880    0.6166 C.3     1  UNL1       -0.0514
      7 C           9.5769    3.3399    1.3504 C.3     1  UNL1       -0.0350
      8 C           8.6822    3.7239    2.5340 C.3     1  UNL1        0.0236
      9 N           9.1538    4.9571    3.1899 N.ar    1  UNL1       -0.3434
     10 C          10.0000    4.9306    4.2848 C.ar    1  UNL1        0.0243
     11 C          10.3205    5.9803    5.0488 C.ar    1  UNL1       -0.0062
     12 C          11.2668    5.6369    6.1416 C.3     1  UNL1       -0.0238
     13 C          11.7364    4.2378    5.7488 C.3     1  UNL1       -0.0436
     14 C          10.6875    3.6896    4.7814 C.3     1  UNL1       -0.0117
     15 C           9.7104    7.2752    4.7370 C.ar    1  UNL1        0.0292
     16 N           9.8832    8.2514    5.5141 N.2     1  UNL1       -0.4603
     17 C           8.8919    7.3837    3.4894 C.ar    1  UNL1        0.0200
     18 C           8.6527    6.2067    2.7332 C.ar    1  UNL1        0.0511
     19 C           7.9314    6.3557    1.5352 C.ar    1  UNL1       -0.0375
     20 C           7.4521    7.5992    1.1133 C.ar    1  UNL1       -0.0598
     21 C           7.6675    8.7316    1.8863 C.ar    1  UNL1       -0.0610
     22 C           8.3837    8.6296    3.0767 C.ar    1  UNL1       -0.0507
     23 H           3.5665   -0.6131   -3.1508 H       1  UNL1        0.0230
     24 H           3.2071    0.4992   -1.8182 H       1  UNL1        0.0230
     25 H           3.9204    1.1155   -3.3212 H       1  UNL1        0.0230
     26 H           5.2842   -0.8260   -1.3799 H       1  UNL1        0.0263
     27 H           5.9943   -0.2156   -2.8772 H       1  UNL1        0.0263
     28 H           5.8377    2.1271   -1.9901 H       1  UNL1        0.0265
     29 H           5.1359    1.5092   -0.4948 H       1  UNL1        0.0265
     30 H           7.2162    0.1754   -0.0688 H       1  UNL1        0.0265
     31 H           7.9249    0.7998   -1.5628 H       1  UNL1        0.0265
     32 H           7.7183    3.1370   -0.6823 H       1  UNL1        0.0265
     33 H           6.9656    2.4989    0.7793 H       1  UNL1        0.0265
     34 H           9.0743    1.2376    1.3088 H       1  UNL1        0.0266
     35 H           9.8052    1.8440   -0.1748 H       1  UNL1        0.0266
     36 H          10.5965    3.1546    1.7084 H       1  UNL1        0.0282
     37 H           9.6566    4.1687    0.6380 H       1  UNL1        0.0282
     38 H           7.6328    3.8364    2.2448 H       1  UNL1        0.0492
     39 H           8.6679    2.8949    3.2532 H       1  UNL1        0.0492
     40 H          12.1132    6.3287    6.1896 H       1  UNL1        0.0314
     41 H          10.7565    5.6279    7.1105 H       1  UNL1        0.0314
     42 H          12.7091    4.3019    5.2426 H       1  UNL1        0.0272
     43 H          11.8693    3.5889    6.6204 H       1  UNL1        0.0272
     44 H          11.1725    3.1236    3.9807 H       1  UNL1        0.0328
     45 H           9.9778    3.0361    5.3005 H       1  UNL1        0.0328
     46 H          10.3034    9.0077    4.9893 H       1  UNL1        0.1318
     47 H           7.7368    5.5131    0.8769 H       1  UNL1        0.0638
     48 H           6.9110    7.6778    0.1712 H       1  UNL1        0.0618
     49 H           7.2832    9.6935    1.5519 H       1  UNL1        0.0618
     50 H           8.5333    9.5411    3.6436 H       1  UNL1        0.0625
     51 H          10.4499    8.0235    6.3144 H       1  UNL1        0.1318
     52 H           8.9764    8.5872    5.8066 H       1  UNL1        0.1318
@<TRIPOS>BOND
     1     1    23    1
     2     1    24    1
     3     1    25    1
     4     2     1    1
     5     2    26    1
     6     2    27    1
     7     3     2    1
     8     3    28    1
     9     3    29    1
    10     4     3    1
    11     4    30    1
    12     4    31    1
    13     5     4    1
    14     5    32    1
    15     5    33    1
    16     6     5    1
    17     6    34    1
    18     6    35    1
    19     7     6    1
    20     7    36    1
    21     7    37    1
    22     8     7    1
    23     8    38    1
    24     8    39    1
    25     9     8    1
    26    10     9   ar
    27    11    10   ar
    28    12    11    1
    29    12    40    1
    30    12    41    1
    31    13    12    1
    32    13    42    1
    33    13    43    1
    34    14    13    1
    35    14    10    1
    36    14    44    1
    37    14    45    1
    38    15    11   ar
    39    16    15    2
    40    16    46    1
    41    16    51    1
    42    17    15   ar
    43    18    17   ar
    44    18     9   ar
    45    19    18   ar
    46    19    47    1
    47    20    19   ar
    48    20    48    1
    49    21    20   ar
    50    21    49    1
    51    22    21   ar
    52    22    17   ar
    53    22    50    1
    54    16    52    1
@<TRIPOS>MOLECULE
mol_337_akc_journalpntd0006157
>323.sdf
 72 76 0 0 0
SMALL
GASTEIGER

@<TRIPOS>ATOM
      1 C          -2.5492   -0.3071   -1.7504 C.3     1  UNL1       -0.0431
      2 N          -1.3963   -0.3405   -0.7777 N.4     1  UNL1        0.2333
      3 C          -1.8215   -0.5804    0.6505 C.3     1  UNL1       -0.0321
      4 C          -2.2473   -2.0279    0.8487 C.3     1  UNL1       -0.0120
      5 C          -1.1734   -3.0115    0.3928 C.3     1  UNL1       -0.0374
      6 C          -0.6847   -2.7133   -1.0279 C.3     1  UNL1        0.0334
      7 C           0.4068   -3.6947   -1.4613 C.3     1  UNL1        0.0974
      8 O           1.5608   -3.7140   -0.6120 O.3     1  UNL1       -0.4878
      9 C           2.4740   -4.7109   -0.9303 C.ar    1  UNL1        0.1628
     10 C           3.6392   -4.8482   -0.1459 C.ar    1  UNL1        0.1667
     11 O           3.8351   -3.9951    0.9131 O.3     1  UNL1       -0.4864
     12 C           3.8485   -4.7115    2.1602 C.3     1  UNL1        0.1054
     13 C           5.2503   -5.2007    2.5422 C.3     1  UNL1        0.0492
     14 N           5.7241   -6.2894    1.6838 N.am    1  UNL1       -0.2935
     15 C           5.9172   -5.9333    0.2793 C.3     1  UNL1        0.0434
     16 C           4.6125   -5.8150   -0.4717 C.ar    1  UNL1        0.0157
     17 C           4.3825   -6.6843   -1.5542 C.ar    1  UNL1       -0.0451
     18 C           3.2113   -6.6064   -2.3114 C.ar    1  UNL1       -0.0073
     19 C           2.2869   -5.6048   -1.9920 C.ar    1  UNL1       -0.0081
     20 C           2.9020   -7.5316   -3.4149 C.ar    1  UNL1        0.0197
     21 C           2.1726   -7.2956   -4.5703 C.ar    1  UNL1       -0.0467
     22 C           2.0111   -8.4618   -5.3717 C.ar    1  UNL1       -0.0512
     23 C           2.6288   -9.5597   -4.8149 C.ar    1  UNL1       -0.0127
     24 C           2.6946  -10.9521   -5.3360 C.3     1  UNL1       -0.0334
     25 S           3.3846   -9.1766   -3.3339 S.2     1  UNL1       -0.0935
     26 C           5.9328   -7.6114    2.0621 C.2     1  UNL1        0.2204
     27 O           6.2602   -8.4687    1.2440 O.2     1  UNL1       -0.2752
     28 C           5.7589   -8.0060    3.5241 C.3     1  UNL1        0.0543
     29 C           4.3665   -8.4063    3.8838 C.ar    1  UNL1        0.0258
     30 C           3.4328   -9.1180    3.1526 C.ar    1  UNL1        0.1381
     31 C           3.3853   -9.7021    1.7957 C.3     1  UNL1       -0.0034
     32 O           2.3128   -9.3003    3.9004 O.2     1  UNL1       -0.3594
     33 N           2.4719   -8.7038    5.1306 N.ar    1  UNL1       -0.0831
     34 C           3.7014   -8.1802    5.1263 C.ar    1  UNL1        0.0844
     35 C           4.1913   -7.4619    6.3269 C.3     1  UNL1       -0.0188
     36 C          -0.2549   -1.2590   -1.1817 C.3     1  UNL1       -0.0261
     37 H          -3.2395    0.4772   -1.4280 H       1  UNL1        0.0777
     38 H          -2.1529   -0.0722   -2.7413 H       1  UNL1        0.0777
     39 H          -3.0546   -1.2753   -1.7591 H       1  UNL1        0.0777
     40 H          -1.0057    0.6116   -0.7973 H       1  UNL1        0.2031
     41 H          -0.9588   -0.3322    1.2785 H       1  UNL1        0.0814
     42 H          -2.6320    0.1190    0.8800 H       1  UNL1        0.0814
     43 H          -2.4680   -2.2007    1.9081 H       1  UNL1        0.0317
     44 H          -3.1789   -2.2254    0.3055 H       1  UNL1        0.0317
     45 H          -0.3334   -2.9769    1.0961 H       1  UNL1        0.0273
     46 H          -1.5814   -4.0287    0.4330 H       1  UNL1        0.0273
     47 H          -1.5226   -2.8885   -1.7157 H       1  UNL1        0.0386
     48 H          -0.0683   -4.6840   -1.4506 H       1  UNL1        0.0701
     49 H           0.7164   -3.4395   -2.4833 H       1  UNL1        0.0701
     50 H           3.1188   -5.5313    2.1635 H       1  UNL1        0.0712
     51 H           3.5261   -3.9933    2.9215 H       1  UNL1        0.0712
     52 H           5.9796   -4.3852    2.4517 H       1  UNL1        0.0498
     53 H           5.2357   -5.5081    3.5870 H       1  UNL1        0.0498
     54 H           6.5663   -6.6708   -0.2060 H       1  UNL1        0.0515
     55 H           6.4643   -4.9829    0.2240 H       1  UNL1        0.0515
     56 H           5.1368   -7.4304   -1.8030 H       1  UNL1        0.0628
     57 H           1.3913   -5.5729   -2.5998 H       1  UNL1        0.0661
     58 H           1.7551   -6.3317   -4.8328 H       1  UNL1        0.0629
     59 H           1.4682   -8.4907   -6.3095 H       1  UNL1        0.0626
     60 H           3.7349  -11.2628   -5.4766 H       1  UNL1        0.0283
     61 H           2.2115  -11.6467   -4.6411 H       1  UNL1        0.0283
     62 H           2.1855  -11.0332   -6.3017 H       1  UNL1        0.0283
     63 H           6.4278   -8.8559    3.7121 H       1  UNL1        0.0409
     64 H           6.1333   -7.2137    4.1781 H       1  UNL1        0.0409
     65 H           3.6318   -8.9506    1.0411 H       1  UNL1        0.0309
     66 H           4.0846  -10.5382    1.7072 H       1  UNL1        0.0309
     67 H           2.3814  -10.0741    1.5638 H       1  UNL1        0.0309
     68 H           5.1478   -7.8726    6.6642 H       1  UNL1        0.0294
     69 H           4.3297   -6.4007    6.0965 H       1  UNL1        0.0294
     70 H           3.4814   -7.5348    7.1580 H       1  UNL1        0.0294
     71 H           0.0042   -1.0087   -2.2167 H       1  UNL1        0.0818
     72 H           0.5950   -1.0043   -0.5390 H       1  UNL1        0.0818
@<TRIPOS>UNITY_ATOM_ATTR
2 1
charge 1
@<TRIPOS>BOND
     1     1    37    1
     2     1    38    1
     3     1    39    1
     4     3     2    1
     5     3    41    1
     6     3    42    1
     7     4     3    1
     8     4    43    1
     9     4    44    1
    10     5     4    1
    11     5    45    1
    12     5    46    1
    13     6     5    1
    14     7    48    1
    15     7    49    1
    16     8     7    1
    17     9     8    1
    18    10     9   ar
    19    11    10    1
    20    12    11    1
    21    12    50    1
    22    12    51    1
    23    13    12    1
    24    13    52    1
    25    13    53    1
    26    14    13    1
    27    15    14    1
    28    15    54    1
    29    15    55    1
    30    16    15    1
    31    16    10   ar
    32    17    16   ar
    33    17    56    1
    34    18    17   ar
    35    19    18   ar
    36    19     9   ar
    37    19    57    1
    38    20    18    1
    39    21    20   ar
    40    21    58    1
    41    22    21   ar
    42    22    59    1
    43    23    22   ar
    44    24    23    1
    45    24    60    1
    46    24    61    1
    47    24    62    1
    48    25    23   ar
    49    25    20   ar
    50    26    14   am
    51    27    26    2
    52    28    26    1
    53    28    63    1
    54    28    64    1
    55    29    28    1
    56    30    29   ar
    57    31    30    1
    58    31    65    1
    59    31    66    1
    60    31    67    1
    61    32    30   ar
    62    33    32   ar
    63    34    33   ar
    64    34    29   ar
    65    35    34    1
    66    35    68    1
    67    35    69    1
    68    35    70    1
    69    36     6    1
    70    36     2    1
    71    36    71    1
    72    36    72    1
    73     2    40    1
    74     2     1    1
    75     6     7    1
    76     6    47    1
@<TRIPOS>MOLECULE
mol_338_akc_journalpntd0006157
>323_2.sdf
 72 76 0 0 0
SMALL
GASTEIGER

@<TRIPOS>ATOM
      1 C           0.2543    0.9561    2.7860 C.3     1  UNL1       -0.0431
      2 N           0.0928    0.9782    1.2879 N.4     1  UNL1        0.2333
      3 C           0.3598    2.3184    0.6573 C.3     1  UNL1       -0.0321
      4 C           1.8510    2.5487    0.4477 C.3     1  UNL1       -0.0120
      5 C           2.5111    1.4007   -0.3187 C.3     1  UNL1       -0.0374
      6 C           2.2420    0.0322    0.3228 C.3     1  UNL1        0.0334
      7 C           3.0975   -0.1634    1.5799 C.3     1  UNL1        0.0974
      8 O           2.6650   -1.3222    2.2925 O.3     1  UNL1       -0.4878
      9 C           2.9749   -1.3499    3.6314 C.ar    1  UNL1        0.1628
     10 C           2.2530   -2.2312    4.4461 C.ar    1  UNL1        0.1667
     11 O           1.2883   -3.0250    3.8714 O.3     1  UNL1       -0.4864
     12 C           1.6738   -4.4112    3.9362 C.3     1  UNL1        0.1054
     13 C           1.1903   -5.0805    5.2300 C.3     1  UNL1        0.0492
     14 N           1.8731   -4.5765    6.4266 N.am    1  UNL1       -0.2935
     15 C           1.6487   -3.1636    6.7315 C.3     1  UNL1        0.0434
     16 C           2.4557   -2.2568    5.8338 C.ar    1  UNL1        0.0157
     17 C           3.4238   -1.4026    6.3923 C.ar    1  UNL1       -0.0451
     18 C           4.1907   -0.5414    5.5937 C.ar    1  UNL1       -0.0073
     19 C           3.9627   -0.5471    4.2100 C.ar    1  UNL1       -0.0081
     20 C           5.2248    0.3544    6.1469 C.ar    1  UNL1        0.0197
     21 C           6.3620    0.8458    5.5249 C.ar    1  UNL1       -0.0467
     22 C           7.1445    1.6811    6.3707 C.ar    1  UNL1       -0.0512
     23 C           6.5889    1.8124    7.6228 C.ar    1  UNL1       -0.0127
     24 C           7.1294    2.5467    8.8004 C.3     1  UNL1       -0.0334
     25 S           5.1022    0.9808    7.7420 S.2     1  UNL1       -0.0935
     26 C           2.8161   -5.2576    7.1866 C.2     1  UNL1        0.2204
     27 O           3.4213   -4.7024    8.1048 O.2     1  UNL1       -0.2752
     28 C           3.1020   -6.7236    6.8891 C.3     1  UNL1        0.0543
     29 C           4.1557   -6.9392    5.8552 C.ar    1  UNL1        0.0258
     30 C           5.3342   -6.2486    5.6412 C.ar    1  UNL1        0.1381
     31 C           5.9933   -5.0834    6.2668 C.3     1  UNL1       -0.0034
     32 O           6.0169   -6.8219    4.6161 O.2     1  UNL1       -0.3594
     33 N           5.3097   -7.8992    4.1317 N.ar    1  UNL1       -0.0831
     34 C           4.2090   -7.9830    4.8845 C.ar    1  UNL1        0.0844
     35 C           3.2385   -9.0767    4.6405 C.3     1  UNL1       -0.0188
     36 C           0.7439   -0.1719    0.5554 C.3     1  UNL1       -0.0261
     37 H          -0.5938    1.4988    3.2124 H       1  UNL1        0.0777
     38 H           0.2320   -0.0805    3.1283 H       1  UNL1        0.0777
     39 H           1.1854    1.4515    3.0633 H       1  UNL1        0.0777
     40 H          -0.9136    0.8121    1.1587 H       1  UNL1        0.2031
     41 H          -0.1703    2.3216   -0.3010 H       1  UNL1        0.0814
     42 H          -0.0823    3.0866    1.3002 H       1  UNL1        0.0814
     43 H           1.9951    3.4808   -0.1114 H       1  UNL1        0.0317
     44 H           2.3503    2.6966    1.4112 H       1  UNL1        0.0317
     45 H           2.1216    1.3948   -1.3447 H       1  UNL1        0.0273
     46 H           3.5905    1.5807   -0.3966 H       1  UNL1        0.0273
     47 H           2.5557   -0.7455   -0.3869 H       1  UNL1        0.0386
     48 H           4.1478   -0.2874    1.2932 H       1  UNL1        0.0701
     49 H           3.0190    0.7318    2.2051 H       1  UNL1        0.0701
     50 H           2.7548   -4.5391    3.7891 H       1  UNL1        0.0712
     51 H           1.1767   -4.9011    3.0910 H       1  UNL1        0.0712
     52 H           0.1199   -4.8893    5.3731 H       1  UNL1        0.0498
     53 H           1.3188   -6.1583    5.1334 H       1  UNL1        0.0498
     54 H           1.8878   -2.9653    7.7830 H       1  UNL1        0.0515
     55 H           0.5809   -2.9409    6.6226 H       1  UNL1        0.0515
     56 H           3.5893   -1.4378    7.4691 H       1  UNL1        0.0628
     57 H           4.5765    0.0969    3.5894 H       1  UNL1        0.0661
     58 H           6.6494    0.5992    4.5104 H       1  UNL1        0.0629
     59 H           8.0826    2.1391    6.0793 H       1  UNL1        0.0626
     60 H           6.4326    3.3225    9.1333 H       1  UNL1        0.0283
     61 H           7.3117    1.8572    9.6315 H       1  UNL1        0.0283
     62 H           8.0805    3.0309    8.5545 H       1  UNL1        0.0283
     63 H           3.4367   -7.1848    7.8286 H       1  UNL1        0.0409
     64 H           2.1735   -7.2442    6.6393 H       1  UNL1        0.0409
     65 H           5.3292   -4.2152    6.2666 H       1  UNL1        0.0309
     66 H           6.2797   -5.3102    7.2980 H       1  UNL1        0.0309
     67 H           6.8983   -4.8006    5.7189 H       1  UNL1        0.0309
     68 H           3.0301   -9.6224    5.5657 H       1  UNL1        0.0294
     69 H           2.2984   -8.6670    4.2585 H       1  UNL1        0.0294
     70 H           3.6169   -9.7953    3.9052 H       1  UNL1        0.0294
     71 H           0.5034   -1.0964    1.0903 H       1  UNL1        0.0818
     72 H           0.2314   -0.2225   -0.4141 H       1  UNL1        0.0818
@<TRIPOS>UNITY_ATOM_ATTR
2 1
charge 1
@<TRIPOS>BOND
     1     1    37    1
     2     1    38    1
     3     1    39    1
     4     3     2    1
     5     3    41    1
     6     3    42    1
     7     4     3    1
     8     4    43    1
     9     4    44    1
    10     5     4    1
    11     5    45    1
    12     5    46    1
    13     6     5    1
    14     6    47    1
    15     7     6    1
    16     7    48    1
    17     7    49    1
    18     8     7    1
    19     9     8    1
    20    10     9   ar
    21    11    10    1
    22    12    11    1
    23    12    50    1
    24    12    51    1
    25    13    12    1
    26    13    52    1
    27    13    53    1
    28    14    13    1
    29    15    14    1
    30    15    54    1
    31    15    55    1
    32    16    15    1
    33    16    10   ar
    34    17    16   ar
    35    17    56    1
    36    18    17   ar
    37    19    18   ar
    38    19     9   ar
    39    19    57    1
    40    20    18    1
    41    21    20   ar
    42    21    58    1
    43    22    21   ar
    44    22    59    1
    45    23    22   ar
    46    24    23    1
    47    24    60    1
    48    24    61    1
    49    24    62    1
    50    25    23   ar
    51    25    20   ar
    52    26    14   am
    53    27    26    2
    54    28    26    1
    55    28    63    1
    56    28    64    1
    57    29    28    1
    58    30    29   ar
    59    31    30    1
    60    31    65    1
    61    31    66    1
    62    31    67    1
    63    32    30   ar
    64    33    32   ar
    65    34    33   ar
    66    34    29   ar
    67    35    34    1
    68    35    68    1
    69    35    69    1
    70    35    70    1
    71    36     6    1
    72    36     2    1
    73    36    71    1
    74    36    72    1
    75     2    40    1
    76     2     1    1
@<TRIPOS>MOLECULE
mol_339_akc_journalpntd0006157
>324.sdf
 42 45 0 0 0
SMALL
GASTEIGER

@<TRIPOS>ATOM
      1 O          -6.7054    0.0567   -0.3366 O.3     1  UNL1       -0.5043
      2 C          -5.8823   -0.4167   -1.3367 C.ar    1  UNL1        0.1479
      3 C          -6.5050   -0.8826   -2.5100 C.ar    1  UNL1        0.1125
      4 N          -7.8441   -0.7804   -2.6951 N.ar    1  UNL1       -0.2513
      5 C          -8.3851   -1.2464   -3.8391 C.ar    1  UNL1        0.0284
      6 C          -7.6578   -1.8568   -4.8391 C.ar    1  UNL1       -0.0430
      7 C          -6.2880   -1.9802   -4.6557 C.ar    1  UNL1       -0.0510
      8 C          -5.6873   -1.4804   -3.4896 C.ar    1  UNL1        0.0040
      9 C          -4.3002   -1.5760   -3.2910 C.ar    1  UNL1       -0.0520
     10 C          -3.7096   -1.0586   -2.1371 C.ar    1  UNL1       -0.0523
     11 C          -4.4861   -0.4546   -1.1353 C.ar    1  UNL1        0.0207
     12 C          -3.7874    0.0890    0.1140 C.3     1  UNL1        0.0773
     13 N          -4.3034   -0.6324    1.2801 N.pl3   1  UNL1       -0.3181
     14 C          -3.4550   -0.9763    2.3213 C.ar    1  UNL1        0.1193
     15 N          -3.8320   -2.0953    2.9689 N.ar    1  UNL1       -0.2405
     16 C          -3.0928   -2.5053    4.0225 C.ar    1  UNL1        0.0297
     17 C          -1.9511   -1.8621    4.4569 C.ar    1  UNL1       -0.0435
     18 C          -1.5684   -0.7085    3.7887 C.ar    1  UNL1       -0.0571
     19 C          -2.3432   -0.2448    2.7261 C.ar    1  UNL1       -0.0219
     20 C          -3.9262    1.6103    0.3040 C.ar    1  UNL1       -0.0030
     21 C          -4.9069    2.1357    1.1787 C.ar    1  UNL1       -0.0550
     22 C          -5.0455    3.5052    1.4034 C.ar    1  UNL1       -0.0600
     23 C          -4.1920    4.3950    0.7678 C.ar    1  UNL1       -0.0420
     24 C          -3.2098    3.9152   -0.1012 C.ar    1  UNL1        0.0596
     25 CL         -2.1692    5.0960   -0.8262 Cl      1  UNL1       -0.0820
     26 C          -3.0756    2.5325   -0.3451 C.ar    1  UNL1        0.0645
     27 CL         -1.8287    1.9681   -1.4160 Cl      1  UNL1       -0.0817
     28 H          -6.2802   -0.1276    0.5173 H       1  UNL1        0.2922
     29 H          -9.4588   -1.1084   -3.9289 H       1  UNL1        0.0830
     30 H          -8.1430   -2.2241   -5.7365 H       1  UNL1        0.0633
     31 H          -5.6911   -2.4639   -5.4253 H       1  UNL1        0.0625
     32 H          -3.6683   -2.0474   -4.0415 H       1  UNL1        0.0624
     33 H          -2.6287   -1.1402   -2.0288 H       1  UNL1        0.0622
     34 H          -2.7198   -0.1504    0.0230 H       1  UNL1        0.0600
     35 H          -4.7918   -1.5013    1.0770 H       1  UNL1        0.1484
     36 H          -3.4601   -3.3965    4.5238 H       1  UNL1        0.0830
     37 H          -1.3808   -2.2448    5.2950 H       1  UNL1        0.0633
     38 H          -0.6774   -0.1677    4.0940 H       1  UNL1        0.0619
     39 H          -2.0492    0.6704    2.2257 H       1  UNL1        0.0652
     40 H          -5.5814    1.4746    1.7209 H       1  UNL1        0.0621
     41 H          -5.8146    3.8684    2.0807 H       1  UNL1        0.0618
     42 H          -4.2938    5.4610    0.9586 H       1  UNL1        0.0633
@<TRIPOS>BOND
     1     1    28    1
     2     2     1    1
     3     3     2   ar
     4     4     3   ar
     5     5     4   ar
     6     5    29    1
     7     6     5   ar
     8     6    30    1
     9     7     6   ar
    10     7    31    1
    11     8     7   ar
    12     8     3   ar
    13     9     8   ar
    14     9    32    1
    15    10     9   ar
    16    10    33    1
    17    11    10   ar
    18    11     2   ar
    19    13    12    1
    20    13    35    1
    21    14    13    1
    22    15    14   ar
    23    16    15   ar
    24    16    36    1
    25    17    16   ar
    26    17    37    1
    27    18    17   ar
    28    18    38    1
    29    19    18   ar
    30    19    14   ar
    31    19    39    1
    32    20    12    1
    33    21    20   ar
    34    21    40    1
    35    22    21   ar
    36    22    41    1
    37    23    22   ar
    38    23    42    1
    39    24    23   ar
    40    25    24    1
    41    26    24   ar
    42    26    20   ar
    43    27    26    1
    44    12    34    1
    45    12    11    1
@<TRIPOS>MOLECULE
mol_33_akc_jejmech201805014
>33.sdf
 52 56 0 0 0
SMALL
GASTEIGER

@<TRIPOS>ATOM
      1 CL         -3.1140   -0.1228    0.1820 Cl      1  UNL1       -0.0835
      2 C          -1.4293   -0.4669    0.1485 C.ar    1  UNL1        0.0417
      3 C          -0.5082    0.5746    0.1576 C.ar    1  UNL1       -0.0336
      4 C           0.8924    0.3507    0.0336 C.ar    1  UNL1        0.0102
      5 C           1.3361   -0.9920    0.0302 C.ar    1  UNL1        0.0717
      6 C           0.3938   -2.0182    0.0571 C.ar    1  UNL1       -0.0343
      7 C          -0.9796   -1.7753    0.0886 C.ar    1  UNL1       -0.0413
      8 N           2.6337   -1.3259   -0.0087 N.ar    1  UNL1       -0.2541
      9 C           3.5556   -0.3349   -0.0936 C.ar    1  UNL1        0.0428
     10 C           3.2437    1.0125   -0.1602 C.ar    1  UNL1        0.0853
     11 C           4.3401    1.9890   -0.3852 C.2     1  UNL1        0.3416
     12 O           4.2035    2.9796   -1.0735 O.2     1  UNL1       -0.2449
     13 O           5.4489    1.6623    0.3281 O.3     1  UNL1       -0.4547
     14 C           6.4942    2.6719    0.3683 C.3     1  UNL1        0.1378
     15 C           7.1134    2.9965   -0.9455 C.ar    1  UNL1        0.1200
     16 C           6.8293    4.0277   -1.8183 C.ar    1  UNL1        0.0524
     17 N           7.5314    3.7078   -2.9422 N.ar    1  UNL1       -0.2470
     18 C           7.4598    4.3144   -4.2641 C.3     1  UNL1        0.0682
     19 C           6.0686    4.3774   -4.8655 C.ar    1  UNL1       -0.0261
     20 C           5.7986    5.3549   -5.8392 C.ar    1  UNL1       -0.0568
     21 C           4.5287    5.4672   -6.4121 C.ar    1  UNL1       -0.0614
     22 C           3.5111    4.5983   -6.0285 C.ar    1  UNL1       -0.0617
     23 C           3.7719    3.5967   -5.0979 C.ar    1  UNL1       -0.0614
     24 C           5.0455    3.4738   -4.5358 C.ar    1  UNL1       -0.0568
     25 N           8.3644    2.6749   -2.7075 N.ar    1  UNL1       -0.0650
     26 N           8.0967    2.2135   -1.4918 N.ar    1  UNL1       -0.1310
     27 C           1.8815    1.3924   -0.0989 C.ar    1  UNL1        0.0068
     28 C           1.4498    2.8196   -0.1681 C.ar    1  UNL1       -0.0164
     29 C           0.4513    3.2336   -1.0722 C.ar    1  UNL1       -0.0540
     30 C          -0.0793    4.5249   -1.0343 C.ar    1  UNL1       -0.0612
     31 C           0.4545    5.4661   -0.1623 C.ar    1  UNL1       -0.0617
     32 C           1.5104    5.1133    0.6728 C.ar    1  UNL1       -0.0612
     33 C           1.9818    3.7967    0.6920 C.ar    1  UNL1       -0.0540
     34 H          -0.9021    1.5830    0.2506 H       1  UNL1        0.0639
     35 H           0.7442   -3.0499    0.0347 H       1  UNL1        0.0639
     36 H          -1.6844   -2.5993    0.0752 H       1  UNL1        0.0633
     37 H           4.5837   -0.6877   -0.1345 H       1  UNL1        0.0838
     38 H           6.0945    3.5706    0.8533 H       1  UNL1        0.0765
     39 H           7.2714    2.2806    1.0365 H       1  UNL1        0.0765
     40 H           6.1105    4.8350   -1.7841 H       1  UNL1        0.0846
     41 H           7.8685    5.3250   -4.1470 H       1  UNL1        0.0559
     42 H           8.1154    3.7453   -4.9331 H       1  UNL1        0.0559
     43 H           6.5773    6.0448   -6.1585 H       1  UNL1        0.0621
     44 H           4.3322    6.2368   -7.1541 H       1  UNL1        0.0618
     45 H           2.5170    4.6977   -6.4564 H       1  UNL1        0.0618
     46 H           2.9824    2.9115   -4.7991 H       1  UNL1        0.0618
     47 H           5.2108    2.6720   -3.8178 H       1  UNL1        0.0621
     48 H           0.0318    2.5285   -1.7887 H       1  UNL1        0.0624
     49 H          -0.9120    4.7881   -1.6813 H       1  UNL1        0.0618
     50 H           0.0532    6.4753   -0.1387 H       1  UNL1        0.0618
     51 H           1.9619    5.8591    1.3215 H       1  UNL1        0.0618
     52 H           2.7844    3.5501    1.3825 H       1  UNL1        0.0624
@<TRIPOS>BOND
     1     2     1    1
     2     3     2   ar
     3     3    34    1
     4     4     3   ar
     5     5     4   ar
     6     6     5   ar
     7     6    35    1
     8     7     6   ar
     9     7     2   ar
    10     7    36    1
    11     8     5   ar
    12     9     8   ar
    13     9    37    1
    14    10     9   ar
    15    11    10    1
    16    12    11    2
    17    13    11    1
    18    14    13    1
    19    14    38    1
    20    14    39    1
    21    15    14    1
    22    16    15   ar
    23    16    40    1
    24    17    16   ar
    25    18    17    1
    26    18    41    1
    27    18    42    1
    28    19    18    1
    29    20    19   ar
    30    20    43    1
    31    21    20   ar
    32    21    44    1
    33    22    21   ar
    34    22    45    1
    35    23    22   ar
    36    23    46    1
    37    24    23   ar
    38    24    19   ar
    39    24    47    1
    40    25    17   ar
    41    26    25   ar
    42    26    15   ar
    43    27    10   ar
    44    27     4   ar
    45    28    27    1
    46    29    28   ar
    47    29    48    1
    48    30    29   ar
    49    30    49    1
    50    31    30   ar
    51    31    50    1
    52    32    31   ar
    53    32    51    1
    54    33    32   ar
    55    33    28   ar
    56    33    52    1
@<TRIPOS>MOLECULE
mol_340_akc
>325.sdf
 34 37 0 0 0
SMALL
GASTEIGER

@<TRIPOS>ATOM
      1 C           3.2728   -0.9936   -0.3769 C.3     1  UNL1        0.0790
      2 O           2.5471    0.0550    0.2555 O.3     1  UNL1       -0.4905
      3 C           3.2259    1.2209    0.4687 C.ar    1  UNL1        0.1797
      4 C           4.2065    1.7184   -0.3839 C.ar    1  UNL1        0.2085
      5 O           4.6560    1.1558   -1.5433 O.3     1  UNL1       -0.4489
      6 C           5.6568    2.1006   -1.9632 C.3     1  UNL1        0.2334
      7 O           5.7743    3.2281   -1.0782 O.3     1  UNL1       -0.4523
      8 C           4.8454    2.9141   -0.1362 C.ar    1  UNL1        0.1734
      9 C           4.5419    3.6911    0.9553 C.ar    1  UNL1        0.0271
     10 C           3.5450    3.2316    1.8169 C.ar    1  UNL1        0.1465
     11 C           2.8847    2.0100    1.5880 C.ar    1  UNL1        0.1093
     12 C           1.8604    1.6030    2.5810 C.ar    1  UNL1        0.1967
     13 O           1.2434    0.5479    2.5482 O.2     1  UNL1       -0.2869
     14 C           1.5956    2.5435    3.6902 C.ar    1  UNL1        0.0288
     15 C           2.2902    3.6854    3.7817 C.ar    1  UNL1        0.1392
     16 O           3.2713    4.0541    2.8795 O.2     1  UNL1       -0.4544
     17 C           2.1020    4.6595    4.8826 C.ar    1  UNL1        0.0174
     18 C           3.1908    5.4365    5.3154 C.ar    1  UNL1       -0.0511
     19 C           3.0470    6.3826    6.3336 C.ar    1  UNL1       -0.0611
     20 C           1.8087    6.5703    6.9376 C.ar    1  UNL1       -0.0617
     21 C           0.7146    5.8155    6.5205 C.ar    1  UNL1       -0.0611
     22 C           0.8582    4.8707    5.4978 C.ar    1  UNL1       -0.0511
     23 H           3.2807   -0.8603   -1.4627 H       1  UNL1        0.0660
     24 H           4.2901   -1.0847    0.0205 H       1  UNL1        0.0660
     25 H           2.7521   -1.9333   -0.1698 H       1  UNL1        0.0660
     26 H           6.6236    1.5865   -2.0095 H       1  UNL1        0.1166
     27 H           5.4025    2.4633   -2.9655 H       1  UNL1        0.1166
     28 H           5.0533    4.6306    1.1335 H       1  UNL1        0.0692
     29 H           0.8449    2.2322    4.4033 H       1  UNL1        0.0693
     30 H           4.1725    5.3114    4.8623 H       1  UNL1        0.0625
     31 H           3.9039    6.9722    6.6498 H       1  UNL1        0.0618
     32 H           1.6948    7.3061    7.7291 H       1  UNL1        0.0618
     33 H          -0.2559    5.9667    6.9871 H       1  UNL1        0.0618
     34 H          -0.0235    4.3167    5.1838 H       1  UNL1        0.0625
@<TRIPOS>BOND
     1     1    23    1
     2     1    24    1
     3     1    25    1
     4     2     1    1
     5     3     2    1
     6     4     3   ar
     7     5     4    1
     8     6     5    1
     9     6    26    1
    10     6    27    1
    11     7     6    1
    12     8     7    1
    13     8     4   ar
    14     9     8   ar
    15     9    28    1
    16    10     9   ar
    17    11    10   ar
    18    11     3   ar
    19    12    11   ar
    20    13    12    2
    21    14    12   ar
    22    14    29    1
    23    15    14   ar
    24    16    15   ar
    25    16    10   ar
    26    17    15    1
    27    18    17   ar
    28    18    30    1
    29    19    18   ar
    30    19    31    1
    31    20    19   ar
    32    20    32    1
    33    21    20   ar
    34    21    33    1
    35    22    21   ar
    36    22    17   ar
    37    22    34    1
@<TRIPOS>MOLECULE
mol_341_akc_c7md00125h
>326.sdf
 72 77 0 0 0
SMALL
GASTEIGER

@<TRIPOS>ATOM
      1 C           5.8427    7.4446   -7.9112 C.3     1  UNL1        0.0790
      2 O           5.3762    6.3754   -8.7249 O.3     1  UNL1       -0.4913
      3 C           4.4009    5.5620   -8.2136 C.ar    1  UNL1        0.1656
      4 C           4.1569    5.4184   -6.8432 C.ar    1  UNL1       -0.0071
      5 C           3.1160    4.5944   -6.3743 C.ar    1  UNL1        0.0150
      6 C           2.3072    3.9244   -7.3189 C.ar    1  UNL1       -0.0071
      7 C           2.5744    4.0115   -8.6876 C.ar    1  UNL1        0.1656
      8 O           1.8968    3.3198   -9.6567 O.3     1  UNL1       -0.4913
      9 C           0.7455    2.5744   -9.2876 C.3     1  UNL1        0.0790
     10 C           3.6425    4.8126   -9.1289 C.ar    1  UNL1        0.2035
     11 O           3.8464    4.8654  -10.4895 O.3     1  UNL1       -0.4885
     12 C           5.1906    4.5992  -10.8870 C.3     1  UNL1        0.0791
     13 C           2.8908    4.3318   -4.8894 C.3     1  UNL1        0.0680
     14 N           3.8051    3.1994   -4.3156 N.4     1  UNL1        0.2507
     15 C           4.1321    1.9914   -5.2245 C.3     1  UNL1       -0.0264
     16 C           3.4420    0.6514   -4.8519 C.3     1  UNL1        0.0152
     17 C           2.1957    0.8889   -4.0863 C.ar    1  UNL1       -0.0089
     18 C           2.1738    1.8902   -3.1449 C.ar    1  UNL1        0.0658
     19 C           3.3213    2.7858   -2.9244 C.3     1  UNL1        0.0106
     20 N           0.9194    1.9671   -2.6135 N.ar    1  UNL1       -0.3536
     21 C           0.0996    1.0735   -3.2796 C.ar    1  UNL1        0.0471
     22 C           0.8983    0.3349   -4.1617 C.ar    1  UNL1        0.0035
     23 C           0.3056   -0.6894   -4.9200 C.ar    1  UNL1       -0.0523
     24 C          -1.0695   -0.9167   -4.8015 C.ar    1  UNL1       -0.0611
     25 C          -1.8497   -0.1379   -3.9488 C.ar    1  UNL1       -0.0598
     26 C          -1.2788    0.8689   -3.1652 C.ar    1  UNL1       -0.0378
     27 C           3.1192    5.5536   -4.0387 C.ar    1  UNL1        0.2044
     28 N           4.2645    5.7461   -3.3993 N.ar    1  UNL1       -0.1071
     29 N           4.0720    6.7903   -2.5515 N.ar    1  UNL1       -0.0228
     30 N           2.8386    7.2458   -2.6540 N.ar    1  UNL1       -0.0435
     31 N           2.2470    6.5319   -3.6350 N.ar    1  UNL1       -0.2211
     32 C           0.9267    6.9778   -4.0492 C.3     1  UNL1        0.0565
     33 C           0.0450    5.9602   -4.7813 C.3     1  UNL1       -0.0304
     34 C          -1.3221    6.5495   -5.1331 C.3     1  UNL1       -0.0511
     35 C          -1.1845    7.8354   -5.9435 C.3     1  UNL1       -0.0529
     36 C          -0.3204    8.8594   -5.2182 C.3     1  UNL1       -0.0511
     37 C           1.0453    8.2835   -4.8594 C.3     1  UNL1       -0.0304
     38 H           5.0135    8.0286   -7.4976 H       1  UNL1        0.0660
     39 H           6.4939    7.0666   -7.1167 H       1  UNL1        0.0660
     40 H           6.4395    8.1097   -8.5425 H       1  UNL1        0.0660
     41 H           4.7899    5.9442   -6.1320 H       1  UNL1        0.0660
     42 H           1.4982    3.2881   -6.9663 H       1  UNL1        0.0660
     43 H           1.0050    1.7594   -8.6038 H       1  UNL1        0.0660
     44 H          -0.0212    3.2246   -8.8543 H       1  UNL1        0.0660
     45 H           0.3318    2.1245  -10.1955 H       1  UNL1        0.0660
     46 H           5.6955    5.5393  -11.1283 H       1  UNL1        0.0660
     47 H           5.7618    4.0394  -10.1373 H       1  UNL1        0.0660
     48 H           5.1581    3.9930  -11.7979 H       1  UNL1        0.0660
     49 H           1.8680    3.9732   -4.7500 H       1  UNL1        0.0989
     50 H           4.6955    3.6908   -4.1550 H       1  UNL1        0.2049
     51 H           5.2210    1.8712   -5.1818 H       1  UNL1        0.0818
     52 H           3.8888    2.2430   -6.2540 H       1  UNL1        0.0818
     53 H           4.1287    0.0675   -4.2251 H       1  UNL1        0.0366
     54 H           3.2608    0.0587   -5.7547 H       1  UNL1        0.0366
     55 H           4.1590    2.2663   -2.4471 H       1  UNL1        0.0882
     56 H           3.0707    3.6688   -2.3335 H       1  UNL1        0.0882
     57 H           0.5938    2.6019   -1.8945 H       1  UNL1        0.1658
     58 H           0.8983   -1.3041   -5.5916 H       1  UNL1        0.0624
     59 H          -1.5349   -1.7100   -5.3822 H       1  UNL1        0.0618
     60 H          -2.9201   -0.3244   -3.8855 H       1  UNL1        0.0618
     61 H          -1.8953    1.4616   -2.4961 H       1  UNL1        0.0638
     62 H           0.4064    7.2164   -3.1076 H       1  UNL1        0.0546
     63 H           0.5246    5.6431   -5.7116 H       1  UNL1        0.0286
     64 H          -0.0973    5.0670   -4.1612 H       1  UNL1        0.0286
     65 H          -1.9029    5.8166   -5.7046 H       1  UNL1        0.0266
     66 H          -1.8822    6.7546   -4.2125 H       1  UNL1        0.0266
     67 H          -0.7367    7.6073   -6.9186 H       1  UNL1        0.0265
     68 H          -2.1755    8.2606   -6.1369 H       1  UNL1        0.0265
     69 H          -0.1906    9.7482   -5.8454 H       1  UNL1        0.0266
     70 H          -0.8301    9.1864   -4.3033 H       1  UNL1        0.0266
     71 H           1.6035    9.0378   -4.2899 H       1  UNL1        0.0286
     72 H           1.6213    8.0985   -5.7756 H       1  UNL1        0.0286
@<TRIPOS>UNITY_ATOM_ATTR
14 1
charge 1
@<TRIPOS>BOND
     1     1    38    1
     2     1    39    1
     3     1    40    1
     4     2     1    1
     5     3     2    1
     6     4     3   ar
     7     4    41    1
     8     5     4   ar
     9     6     5   ar
    10     6    42    1
    11     7     6   ar
    12     8     7    1
    13     9     8    1
    14     9    43    1
    15     9    44    1
    16     9    45    1
    17    10     7   ar
    18    10     3   ar
    19    11    10    1
    20    12    11    1
    21    12    46    1
    22    12    47    1
    23    12    48    1
    24    13     5    1
    25    13    49    1
    26    15    14    1
    27    15    51    1
    28    15    52    1
    29    16    15    1
    30    16    53    1
    31    16    54    1
    32    17    16    1
    33    18    17   ar
    34    19    18    1
    35    19    14    1
    36    19    55    1
    37    19    56    1
    38    20    18   ar
    39    20    57    1
    40    21    20   ar
    41    22    21   ar
    42    22    17   ar
    43    23    22   ar
    44    23    58    1
    45    24    23   ar
    46    24    59    1
    47    25    24   ar
    48    25    60    1
    49    26    25   ar
    50    26    21   ar
    51    26    61    1
    52    27    13    1
    53    28    27   ar
    54    29    28   ar
    55    30    29   ar
    56    31    30   ar
    57    31    27   ar
    58    32    31    1
    59    32    62    1
    60    33    32    1
    61    33    63    1
    62    33    64    1
    63    34    33    1
    64    34    65    1
    65    34    66    1
    66    35    34    1
    67    35    67    1
    68    35    68    1
    69    36    35    1
    70    36    69    1
    71    36    70    1
    72    37    36    1
    73    37    32    1
    74    37    71    1
    75    37    72    1
    76    14    50    1
    77    14    13    1
@<TRIPOS>MOLECULE
mol_342_akc_jejmech201708055
>327.sdf
 32 32 0 0 0
SMALL
GASTEIGER

@<TRIPOS>ATOM
      1 C           0.9969    0.0820    0.0138 C.3     1  UNL1       -0.0653
      2 C           2.5156    0.0727   -0.0468 C.3     1  UNL1       -0.0559
      3 C           3.0679   -1.3491    0.0240 C.3     1  UNL1       -0.0529
      4 C           4.5960   -1.3499   -0.0300 C.3     1  UNL1       -0.0460
      5 C           5.1424   -2.7767    0.0054 C.3     1  UNL1        0.0108
      6 C           6.6632   -2.8272   -0.0698 C.2     1  UNL1        0.1736
      7 O           7.3101   -1.7940   -0.2459 O.2     1  UNL1       -0.2917
      8 C           7.3431   -4.1663    0.0546 C.ar    1  UNL1        0.1429
      9 C           8.6247   -4.2416    0.4628 C.ar    1  UNL1        0.1374
     10 O           9.3640   -3.1436    0.8459 O.3     1  UNL1       -0.5057
     11 C           9.3228   -5.4990    0.5408 C.ar    1  UNL1        0.0187
     12 C           8.6772   -6.6278    0.2334 C.ar    1  UNL1        0.1096
     13 C           9.2765   -7.9938    0.2571 C.3     1  UNL1       -0.0061
     14 O           7.3259   -6.6035   -0.1559 O.2     1  UNL1       -0.4268
     15 C           6.6301   -5.4304   -0.2597 C.ar    1  UNL1        0.3511
     16 O           5.4531   -5.4589   -0.6055 O.2     1  UNL1       -0.2443
     17 H           0.6228    1.1094   -0.0340 H       1  UNL1        0.0230
     18 H           0.5679   -0.4759   -0.8248 H       1  UNL1        0.0230
     19 H           0.6392   -0.3679    0.9453 H       1  UNL1        0.0230
     20 H           2.8419    0.5534   -0.9763 H       1  UNL1        0.0263
     21 H           2.9136    0.6676    0.7839 H       1  UNL1        0.0263
     22 H           2.7328   -1.8313    0.9501 H       1  UNL1        0.0265
     23 H           2.6684   -1.9394   -0.8096 H       1  UNL1        0.0265
     24 H           4.9286   -0.8550   -0.9517 H       1  UNL1        0.0269
     25 H           5.0027   -0.7705    0.8072 H       1  UNL1        0.0269
     26 H           4.8201   -3.2744    0.9266 H       1  UNL1        0.0345
     27 H           4.7343   -3.2995   -0.8640 H       1  UNL1        0.0345
     28 H          10.2866   -3.3856    1.0208 H       1  UNL1        0.2922
     29 H          10.3670   -5.5270    0.8332 H       1  UNL1        0.0688
     30 H           8.7269   -8.6347    0.9525 H       1  UNL1        0.0308
     31 H           9.2278   -8.4433   -0.7398 H       1  UNL1        0.0308
     32 H          10.3271   -7.9763    0.5699 H       1  UNL1        0.0308
@<TRIPOS>BOND
     1     1    17    1
     2     1    18    1
     3     1    19    1
     4     2     1    1
     5     2    20    1
     6     2    21    1
     7     3     2    1
     8     3    22    1
     9     3    23    1
    10     4     3    1
    11     4    24    1
    12     4    25    1
    13     5     4    1
    14     5    26    1
    15     5    27    1
    16     6     5    1
    17     7     6    2
    18     8     6    1
    19     9     8   ar
    20    10     9    1
    21    10    28    1
    22    11     9   ar
    23    11    29    1
    24    12    11   ar
    25    13    12    1
    26    13    30    1
    27    13    31    1
    28    13    32    1
    29    14    12   ar
    30    15    14   ar
    31    15     8   ar
    32    16    15    2
@<TRIPOS>MOLECULE
mol_343_akc_pmc5629310
>328.sdf
 32 34 0 0 0
SMALL
GASTEIGER

@<TRIPOS>ATOM
      1 O          -1.7709   -0.0678    0.6650 O.3     1  UNL1       -0.3917
      2 C          -1.0117    0.0089   -0.5415 C.3     1  UNL1        0.0581
      3 C          -0.1929    1.2969   -0.5750 C.3     1  UNL1       -0.0110
      4 C           0.9756    1.2502    0.4062 C.3     1  UNL1        0.0164
      5 N           1.7648    0.0497    0.1602 N.pl3   1  UNL1       -0.3080
      6 C           1.0606   -1.2268    0.2379 C.3     1  UNL1        0.0164
      7 C          -0.1333   -1.2315   -0.7118 C.3     1  UNL1       -0.0110
      8 C           3.0619    0.0834   -0.2664 C.ar    1  UNL1        0.1844
      9 N           3.6772   -0.8961   -0.9039 N.ar    1  UNL1       -0.1255
     10 N           5.0065   -0.6308   -1.1769 N.ar    1  UNL1       -0.1391
     11 C           5.3850    0.5375   -0.7040 C.ar    1  UNL1        0.1403
     12 S           4.1187    1.4179    0.0350 S.2     1  UNL1       -0.0301
     13 C           6.7497    1.0011   -0.7902 C.ar    1  UNL1        0.0484
     14 C           7.8077    0.3446   -1.3999 C.ar    1  UNL1       -0.0426
     15 C           9.0459    1.0487   -1.2720 C.ar    1  UNL1       -0.0235
     16 C           8.8836    2.2224   -0.5709 C.ar    1  UNL1        0.1641
     17 S           7.2809    2.4828   -0.0920 S.2     1  UNL1       -0.0624
     18 N           9.9066    3.1769   -0.2309 N.pl3   1  UNL1        0.0632
     19 O          11.0552    2.9097   -0.6149 O.2     1  UNL1       -0.1256
     20 O           9.5825    4.1863    0.4078 O.2     1  UNL1       -0.1256
     21 H          -1.1674   -0.1273    1.4234 H       1  UNL1        0.2098
     22 H          -1.7448    0.0353   -1.3551 H       1  UNL1        0.0594
     23 H           0.1981    1.4458   -1.5896 H       1  UNL1        0.0305
     24 H          -0.8273    2.1572   -0.3331 H       1  UNL1        0.0305
     25 H           1.5452    2.1785    0.2977 H       1  UNL1        0.0465
     26 H           0.6102    1.2363    1.4398 H       1  UNL1        0.0465
     27 H           1.7075   -2.0834    0.0139 H       1  UNL1        0.0465
     28 H           0.7168   -1.3740    1.2693 H       1  UNL1        0.0465
     29 H          -0.7236   -2.1382   -0.5369 H       1  UNL1        0.0305
     30 H           0.2354   -1.2672   -1.7445 H       1  UNL1        0.0305
     31 H           7.6992   -0.6099   -1.9057 H       1  UNL1        0.0630
     32 H           9.9949    0.7010   -1.6670 H       1  UNL1        0.0646
@<TRIPOS>BOND
     1     1    21    1
     2     2     1    1
     3     2    22    1
     4     3     2    1
     5     3    23    1
     6     3    24    1
     7     4     3    1
     8     4    25    1
     9     4    26    1
    10     5     4    1
    11     6     5    1
    12     6    27    1
    13     6    28    1
    14     7     6    1
    15     7     2    1
    16     7    29    1
    17     7    30    1
    18     8     5    1
    19     9     8   ar
    20    10     9   ar
    21    11    10   ar
    22    12    11   ar
    23    12     8   ar
    24    13    11    1
    25    14    13   ar
    26    14    31    1
    27    15    14   ar
    28    15    32    1
    29    16    15   ar
    30    17    16   ar
    31    17    13   ar
    32    18    16    1
    33    19    18    2
    34    20    18    2
@<TRIPOS>MOLECULE
mol_344_akc_c7ra01070b
>329.sdf
 60 65 0 0 0
SMALL
GASTEIGER

@<TRIPOS>ATOM
      1 C           0.7552   -5.4077   -1.6020 C.3     1  UNL1        0.0253
      2 C           0.8180   -5.5986   -0.1452 C.ar    1  UNL1        0.2350
      3 C           0.2575   -6.5677    0.6524 C.ar    1  UNL1        0.1390
      4 C          -0.5879   -7.7545    0.3912 C.ar    1  UNL1       -0.0299
      5 C          -0.9483   -8.4724    1.4728 C.ar    1  UNL1       -0.0581
      6 C          -0.5147   -8.0729    2.8117 C.ar    1  UNL1       -0.0433
      7 C           0.2561   -6.9890    3.0374 C.ar    1  UNL1        0.0351
      8 N           0.6443   -6.2356    1.9486 N.ar    1  UNL1       -0.1798
      9 N           1.3956   -5.1623    2.0525 N.ar    1  UNL1        0.0999
     10 N           1.5088   -4.7757    0.7776 N.ar    1  UNL1       -0.0621
     11 C           2.3116   -3.5708    0.5023 C.3     1  UNL1        0.2034
     12 C           3.7456   -3.9786    0.2693 C.ar    1  UNL1        0.0195
     13 C           4.1880   -4.3796   -0.9947 C.ar    1  UNL1       -0.0519
     14 C           5.4848   -4.8753   -1.1739 C.ar    1  UNL1       -0.0536
     15 C           6.3991   -4.9657   -0.1090 C.ar    1  UNL1       -0.0179
     16 C           5.9631   -4.4854    1.1376 C.ar    1  UNL1       -0.0536
     17 C           4.6566   -4.0160    1.3309 C.ar    1  UNL1       -0.0519
     18 C           7.7232   -5.6159   -0.2832 C.ar    1  UNL1       -0.0179
     19 C           8.3859   -5.6291   -1.5231 C.ar    1  UNL1       -0.0536
     20 C           9.5386   -6.3965   -1.7324 C.ar    1  UNL1       -0.0519
     21 C          10.0930   -7.1541   -0.6958 C.ar    1  UNL1        0.0195
     22 C          11.2355   -8.1019   -0.9474 C.3     1  UNL1        0.2034
     23 N          12.5329   -7.4323   -0.8222 N.ar    1  UNL1       -0.0621
     24 N          13.1136   -7.4374    0.3789 N.ar    1  UNL1        0.0999
     25 N          14.3127   -6.9798    0.0996 N.ar    1  UNL1       -0.1798
     26 C          15.3060   -6.8625    1.0512 C.ar    1  UNL1        0.0351
     27 C          16.5190   -6.4363    0.6469 C.ar    1  UNL1       -0.0433
     28 C          16.8136   -6.0946   -0.7445 C.ar    1  UNL1       -0.0581
     29 C          15.8612   -6.1824   -1.6928 C.ar    1  UNL1       -0.0299
     30 C          14.5360   -6.6564   -1.2355 C.ar    1  UNL1        0.1390
     31 C          13.3409   -6.9159   -1.8637 C.ar    1  UNL1        0.2350
     32 C          12.9240   -6.7796   -3.2673 C.3     1  UNL1        0.0253
     33 C           9.5028   -7.0749    0.5697 C.ar    1  UNL1       -0.0519
     34 C           8.3316   -6.3310    0.7640 C.ar    1  UNL1       -0.0536
     35 H           1.2103   -6.2678   -2.1024 H       1  UNL1        0.0338
     36 H          -0.2890   -5.3262   -1.9158 H       1  UNL1        0.0338
     37 H           1.2741   -4.5038   -1.9197 H       1  UNL1        0.0338
     38 H          -0.8934   -8.0190   -0.6141 H       1  UNL1        0.0641
     39 H          -1.5710   -9.3596    1.3794 H       1  UNL1        0.0619
     40 H          -0.8439   -8.6920    3.6437 H       1  UNL1        0.0633
     41 H           0.5835   -6.6827    4.0244 H       1  UNL1        0.0832
     42 H           1.9024   -3.0410   -0.3637 H       1  UNL1        0.1110
     43 H           2.2348   -2.8848    1.3549 H       1  UNL1        0.1110
     44 H           3.5355   -4.3348   -1.8626 H       1  UNL1        0.0623
     45 H           5.7539   -5.2271   -2.1683 H       1  UNL1        0.0624
     46 H           6.6342   -4.4852    1.9948 H       1  UNL1        0.0624
     47 H           4.3633   -3.6931    2.3288 H       1  UNL1        0.0623
     48 H           7.9913   -5.0657   -2.3667 H       1  UNL1        0.0624
     49 H           9.9557   -6.4249   -2.7357 H       1  UNL1        0.0623
     50 H          11.1996   -8.9391   -0.2384 H       1  UNL1        0.1110
     51 H          11.1481   -8.5485   -1.9437 H       1  UNL1        0.1110
     52 H          15.0753   -7.1256    2.0782 H       1  UNL1        0.0832
     53 H          17.3318   -6.3397    1.3627 H       1  UNL1        0.0633
     54 H          17.8233   -5.7743   -0.9897 H       1  UNL1        0.0619
     55 H          16.0476   -5.9425   -2.7329 H       1  UNL1        0.0641
     56 H          12.5900   -7.7439   -3.6578 H       1  UNL1        0.0338
     57 H          12.1127   -6.0528   -3.3413 H       1  UNL1        0.0338
     58 H          13.7540   -6.4234   -3.8833 H       1  UNL1        0.0338
     59 H           9.9067   -7.6347    1.4119 H       1  UNL1        0.0623
     60 H           7.8703   -6.3687    1.7493 H       1  UNL1        0.0624
@<TRIPOS>UNITY_ATOM_ATTR
10 1
charge 1
23 1
charge 1
@<TRIPOS>BOND
     1     1    35    1
     2     1    36    1
     3     1    37    1
     4     2     1    1
     5     3     2   ar
     6     4     3   ar
     7     4    38    1
     8     5     4   ar
     9     5    39    1
    10     6     5   ar
    11     6    40    1
    12     7     6   ar
    13     7    41    1
    14     8     7   ar
    15     8     3   ar
    16     9     8   ar
    17    10     9   ar
    18    10     2   ar
    19    11    10    1
    20    11    42    1
    21    11    43    1
    22    12    11    1
    23    13    12   ar
    24    13    44    1
    25    14    13   ar
    26    14    45    1
    27    15    14   ar
    28    16    15   ar
    29    16    46    1
    30    17    16   ar
    31    17    12   ar
    32    17    47    1
    33    18    15    1
    34    19    18   ar
    35    19    48    1
    36    20    19   ar
    37    20    49    1
    38    21    20   ar
    39    22    21    1
    40    22    50    1
    41    22    51    1
    42    23    22    1
    43    24    23   ar
    44    25    24   ar
    45    26    25   ar
    46    26    52    1
    47    27    26   ar
    48    27    53    1
    49    28    27   ar
    50    28    54    1
    51    29    28   ar
    52    29    55    1
    53    30    29   ar
    54    30    25   ar
    55    31    30   ar
    56    31    23   ar
    57    32    31    1
    58    32    56    1
    59    32    57    1
    60    32    58    1
    61    33    21   ar
    62    33    59    1
    63    34    33   ar
    64    34    18   ar
    65    34    60    1
@<TRIPOS>MOLECULE
mol_345_akc_jejmech201701029
>330.sdf
 34 37 0 0 0
SMALL
GASTEIGER

@<TRIPOS>ATOM
      1 CL          2.5793    1.3054   -1.0645 Cl      1  UNL1       -0.1204
      2 C           2.4357   -0.0291    0.0941 C.3     1  UNL1        0.0476
      3 C           3.0042   -1.2956   -0.4817 C.ar    1  UNL1       -0.0327
      4 C           4.3656   -1.5896   -0.3458 C.ar    1  UNL1       -0.0568
      5 C           4.8914   -2.7771   -0.8639 C.ar    1  UNL1       -0.0507
      6 C           4.0738   -3.6982   -1.5355 C.ar    1  UNL1        0.0200
      7 C           2.7175   -3.3834   -1.6963 C.ar    1  UNL1       -0.0507
      8 C           2.1884   -2.1953   -1.1787 C.ar    1  UNL1       -0.0568
      9 C           4.6308   -4.9559   -2.0207 C.ar    1  UNL1        0.1678
     10 C           5.8554   -5.5718   -1.9157 C.ar    1  UNL1        0.0130
     11 C           5.7060   -6.8213   -2.5718 C.ar    1  UNL1        0.1140
     12 N           4.4700   -6.9295   -3.0832 N.ar    1  UNL1       -0.0776
     13 O           3.8021   -5.7723   -2.7292 O.2     1  UNL1       -0.3541
     14 C           6.6968   -7.8890   -2.6971 C.ar    1  UNL1        0.0073
     15 C           7.6866   -8.0506   -1.7131 C.ar    1  UNL1       -0.0069
     16 C           8.5887   -9.0838   -1.8609 C.ar    1  UNL1        0.1669
     17 C           8.5479   -9.9368   -2.9359 C.ar    1  UNL1        0.1663
     18 O           9.5215  -10.8842   -2.8828 O.3     1  UNL1       -0.4526
     19 C          10.1432  -10.5636   -1.6209 C.3     1  UNL1        0.2332
     20 O           9.5912   -9.3870   -0.9934 O.3     1  UNL1       -0.4526
     21 C           7.5988   -9.8083   -3.9260 C.ar    1  UNL1       -0.0155
     22 C           6.6613   -8.7756   -3.7984 C.ar    1  UNL1       -0.0488
     23 H           2.9638    0.2512    1.0117 H       1  UNL1        0.0478
     24 H           1.3784   -0.1540    0.3499 H       1  UNL1        0.0478
     25 H           5.0295   -0.8966    0.1679 H       1  UNL1        0.0621
     26 H           5.9529   -2.9701   -0.7294 H       1  UNL1        0.0625
     27 H           2.0491   -4.0646   -2.2201 H       1  UNL1        0.0625
     28 H           1.1305   -1.9828   -1.3216 H       1  UNL1        0.0621
     29 H           6.7325   -5.1886   -1.4180 H       1  UNL1        0.0678
     30 H           7.7451   -7.4100   -0.8406 H       1  UNL1        0.0662
     31 H          10.0137  -11.4140   -0.9412 H       1  UNL1        0.1166
     32 H          11.2149  -10.4043   -1.7849 H       1  UNL1        0.1166
     33 H           7.5742  -10.4874   -4.7708 H       1  UNL1        0.0655
     34 H           5.8967   -8.6615   -4.5659 H       1  UNL1        0.0625
@<TRIPOS>BOND
     1     2     1    1
     2     2    23    1
     3     2    24    1
     4     3     2    1
     5     4     3   ar
     6     4    25    1
     7     5     4   ar
     8     5    26    1
     9     6     5   ar
    10     7     6   ar
    11     7    27    1
    12     8     7   ar
    13     8     3   ar
    14     8    28    1
    15     9     6    1
    16    10     9   ar
    17    10    29    1
    18    11    10   ar
    19    12    11   ar
    20    13    12   ar
    21    13     9   ar
    22    14    11    1
    23    15    14   ar
    24    15    30    1
    25    16    15   ar
    26    17    16   ar
    27    18    17    1
    28    19    18    1
    29    19    31    1
    30    19    32    1
    31    20    19    1
    32    20    16    1
    33    21    17   ar
    34    21    33    1
    35    22    21   ar
    36    22    14   ar
    37    22    34    1
@<TRIPOS>MOLECULE
mol_346_akc_jejmech201701022
>331.sdf
 30 32 0 0 0
SMALL
GASTEIGER

@<TRIPOS>ATOM
      1 O           3.1737   -0.5390   -2.0634 O.co2   1  UNL1       -0.5735
      2 N           3.8063   -0.1204   -1.0858 N.pl3   1  UNL1        0.1186
      3 O           3.9305    1.0678   -0.7559 O.2     1  UNL1        0.0446
      4 C           4.4450   -1.1060   -0.2732 C.ar    1  UNL1        0.4380
      5 C           4.5196   -2.4724   -0.3972 C.ar    1  UNL1        0.0595
      6 C           5.2594   -2.9068    0.7260 C.ar    1  UNL1       -0.0078
      7 C           5.5750   -1.7794    1.4668 C.ar    1  UNL1        0.1545
      8 O           5.0869   -0.6621    0.8440 O.2     1  UNL1       -0.3992
      9 C           6.2540   -1.6449    2.7245 C.2     1  UNL1        0.0880
     10 N           6.6337   -2.7217    3.3325 N.2     1  UNL1       -0.1855
     11 N           7.2244   -2.5815    4.5530 N.pl3   1  UNL1       -0.2190
     12 C           7.6331   -3.8128    5.1554 C.ar    1  UNL1        0.1683
     13 N           7.4798   -4.9727    4.4666 N.ar    1  UNL1       -0.1307
     14 N           7.8150   -6.1745    5.0170 N.ar    1  UNL1       -0.1352
     15 C           8.2840   -6.2092    6.2754 C.ar    1  UNL1        0.1593
     16 CL          8.6270   -7.8094    6.8138 Cl      1  UNL1       -0.0595
     17 C           8.4665   -5.0671    7.0638 C.ar    1  UNL1        0.0241
     18 C           8.9501   -5.0992    8.3956 C.ar    1  UNL1       -0.0510
     19 C           9.1061   -3.9319    9.1405 C.ar    1  UNL1       -0.0611
     20 C           8.7793   -2.7080    8.5764 C.ar    1  UNL1       -0.0611
     21 C           8.2939   -2.6520    7.2684 C.ar    1  UNL1       -0.0505
     22 C           8.1314   -3.8205    6.4815 C.ar    1  UNL1        0.0282
     23 H           4.0861   -3.0768   -1.1840 H       1  UNL1        0.0722
     24 H           5.5224   -3.9227    0.9980 H       1  UNL1        0.0658
     25 H           6.4089   -0.6349    3.1425 H       1  UNL1        0.0883
     26 H           7.9790   -1.8999    4.6220 H       1  UNL1        0.1760
     27 H           9.2057   -6.0448    8.8719 H       1  UNL1        0.0625
     28 H           9.4751   -3.9835   10.1621 H       1  UNL1        0.0618
     29 H           8.8921   -1.7946    9.1558 H       1  UNL1        0.0618
     30 H           8.0267   -1.6743    6.8730 H       1  UNL1        0.0625
@<TRIPOS>UNITY_ATOM_ATTR
1 1
charge -1
2 1
charge 1
@<TRIPOS>BOND
     1     2     1    1
     2     3     2    2
     3     4     2    1
     4     5     4   ar
     5     5    23    1
     6     6     5   ar
     7     6    24    1
     8     7     6   ar
     9     8     7   ar
    10     8     4   ar
    11     9     7    1
    12     9    25    1
    13    10     9    2
    14    11    10    1
    15    11    26    1
    16    12    11    1
    17    13    12   ar
    18    14    13   ar
    19    15    14   ar
    20    16    15    1
    21    17    15   ar
    22    18    17   ar
    23    18    27    1
    24    19    18   ar
    25    19    28    1
    26    20    19   ar
    27    20    29    1
    28    21    20   ar
    29    21    30    1
    30    22    21   ar
    31    22    12   ar
    32    22    17   ar
@<TRIPOS>MOLECULE
mol_347_akc_jbmc201610013
>332.sdf
 77 78 0 0 0
SMALL
GASTEIGER

@<TRIPOS>ATOM
      1 C          12.8911   -0.5051   -8.0211 C.3     1  UNL1       -0.0253
      2 C          12.5758    0.1197   -6.6538 C.3     1  UNL1        0.1068
      3 C          13.6360   -0.2343   -5.6004 C.3     1  UNL1       -0.0253
      4 C          12.5497    1.6458   -6.8168 C.3     1  UNL1       -0.0253
      5 O          11.2348   -0.2435   -6.2133 O.3     1  UNL1       -0.4447
      6 C          10.9768   -1.5528   -6.0068 C.2     1  UNL1        0.4008
      7 O          11.7737   -2.4646   -6.1146 O.2     1  UNL1       -0.2265
      8 N           9.6575   -1.7447   -5.6669 N.am    1  UNL1       -0.2811
      9 C           9.1878   -3.0990   -5.5814 C.3     1  UNL1        0.0148
     10 C           7.8551   -3.2635   -4.8757 C.3     1  UNL1       -0.0359
     11 C           7.5284   -4.7382   -4.5999 C.3     1  UNL1       -0.0357
     12 C           8.3000   -5.4112   -3.4438 C.3     1  UNL1        0.0148
     13 N           9.7144   -5.7356   -3.6980 N.am    1  UNL1       -0.2986
     14 C          10.7365   -4.8476   -3.1090 C.3     1  UNL1        0.0162
     15 C          11.1840   -5.1582   -1.6839 C.3     1  UNL1       -0.0214
     16 C          12.0188   -6.4231   -1.5143 C.3     1  UNL1        0.0161
     17 N          12.3634   -6.6055   -0.1125 N.am    1  UNL1       -0.2811
     18 C          11.4329   -7.0885    0.7629 C.2     1  UNL1        0.4008
     19 O          10.3391   -7.5172    0.4153 O.2     1  UNL1       -0.2265
     20 O          11.8762   -6.9897    2.0417 O.3     1  UNL1       -0.4447
     21 C          11.0080   -7.4676    3.1076 C.3     1  UNL1        0.1068
     22 C          10.7607   -8.9762    2.9628 C.3     1  UNL1       -0.0253
     23 C          11.7600   -7.2365    4.4297 C.3     1  UNL1       -0.0253
     24 C           9.7013   -6.6615    3.1721 C.3     1  UNL1       -0.0253
     25 C          10.1564   -6.8065   -4.4827 C.2     1  UNL1        0.2559
     26 O          11.3607   -7.0190   -4.6608 O.2     1  UNL1       -0.2718
     27 C           9.1301   -7.7574   -5.1198 C.3     1  UNL1        0.1934
     28 O           8.6429   -7.2781   -6.3717 O.3     1  UNL1       -0.3835
     29 N           7.7410   -8.2109   -6.8944 N.ar    1  UNL1       -0.0765
     30 N           6.7435   -8.6988   -6.1397 N.ar    1  UNL1       -0.0288
     31 N           6.0613   -9.5551   -6.8877 N.ar    1  UNL1       -0.1267
     32 C           6.5862   -9.5203   -8.1520 C.ar    1  UNL1        0.1163
     33 C           6.2030  -10.2101   -9.3108 C.ar    1  UNL1       -0.0323
     34 C           6.8895   -9.9448  -10.5024 C.ar    1  UNL1       -0.0596
     35 C           7.9351   -9.0147  -10.5333 C.ar    1  UNL1       -0.0595
     36 C           8.3457   -8.3351   -9.3761 C.ar    1  UNL1       -0.0310
     37 C           7.6513   -8.6253   -8.2007 C.ar    1  UNL1        0.1301
     38 H          13.8463   -0.1433   -8.4140 H       1  UNL1        0.0268
     39 H          12.9536   -1.5963   -7.9780 H       1  UNL1        0.0268
     40 H          12.1018   -0.2695   -8.7439 H       1  UNL1        0.0268
     41 H          14.6281    0.1171   -5.9036 H       1  UNL1        0.0268
     42 H          13.3884    0.2153   -4.6321 H       1  UNL1        0.0268
     43 H          13.7163   -1.3112   -5.4279 H       1  UNL1        0.0268
     44 H          11.7723    1.9494   -7.5269 H       1  UNL1        0.0268
     45 H          12.3128    2.1371   -5.8663 H       1  UNL1        0.0268
     46 H          13.5128    2.0276   -7.1726 H       1  UNL1        0.0268
     47 H           9.0374   -0.9479   -5.7282 H       1  UNL1        0.1520
     48 H           9.1588   -3.5263   -6.5897 H       1  UNL1        0.0463
     49 H           9.9627   -3.6460   -5.0610 H       1  UNL1        0.0463
     50 H           7.8177   -2.6877   -3.9442 H       1  UNL1        0.0281
     51 H           7.0749   -2.8481   -5.5280 H       1  UNL1        0.0281
     52 H           6.4614   -4.7878   -4.3460 H       1  UNL1        0.0281
     53 H           7.6398   -5.2998   -5.5291 H       1  UNL1        0.0281
     54 H           8.2357   -4.7911   -2.5425 H       1  UNL1        0.0464
     55 H           7.7867   -6.3461   -3.1978 H       1  UNL1        0.0464
     56 H          11.6108   -4.8085   -3.7688 H       1  UNL1        0.0465
     57 H          10.3161   -3.8365   -3.0767 H       1  UNL1        0.0465
     58 H          11.7977   -4.3121   -1.3424 H       1  UNL1        0.0295
     59 H          10.3100   -5.1813   -1.0229 H       1  UNL1        0.0295
     60 H          11.4611   -7.3028   -1.8501 H       1  UNL1        0.0463
     61 H          12.9539   -6.3653   -2.0808 H       1  UNL1        0.0463
     62 H          13.1923   -6.1837    0.2804 H       1  UNL1        0.1520
     63 H          11.7140   -9.5170    2.9281 H       1  UNL1        0.0268
     64 H          10.1668   -9.3670    3.7940 H       1  UNL1        0.0268
     65 H          10.2333   -9.2276    2.0387 H       1  UNL1        0.0268
     66 H          11.9764   -6.1731    4.5810 H       1  UNL1        0.0268
     67 H          11.1738   -7.5903    5.2864 H       1  UNL1        0.0268
     68 H          12.7234   -7.7574    4.4345 H       1  UNL1        0.0268
     69 H           9.9136   -5.5921    3.2870 H       1  UNL1        0.0268
     70 H           9.0974   -6.7591    2.2667 H       1  UNL1        0.0268
     71 H           9.0780   -6.9821    4.0136 H       1  UNL1        0.0268
     72 H           9.6346   -8.7207   -5.2707 H       1  UNL1        0.0822
     73 H           8.3186   -7.9282   -4.4084 H       1  UNL1        0.0822
     74 H           5.3864  -10.9236   -9.2812 H       1  UNL1        0.0640
     75 H           6.6006  -10.4653  -11.4124 H       1  UNL1        0.0618
     76 H           8.4410   -8.8198  -11.4779 H       1  UNL1        0.0618
     77 H           9.1598   -7.6133   -9.4029 H       1  UNL1        0.0640
@<TRIPOS>BOND
     1     1    38    1
     2     1    39    1
     3     1    40    1
     4     2     1    1
     5     3     2    1
     6     3    41    1
     7     3    42    1
     8     3    43    1
     9     4     2    1
    10     4    44    1
    11     4    45    1
    12     4    46    1
    13     5     2    1
    14     6     5    1
    15     7     6    2
    16     8     6   am
    17     8    47    1
    18     9     8    1
    19     9    48    1
    20     9    49    1
    21    10     9    1
    22    10    50    1
    23    10    51    1
    24    11    10    1
    25    11    52    1
    26    11    53    1
    27    12    11    1
    28    12    54    1
    29    12    55    1
    30    13    12    1
    31    14    13    1
    32    14    56    1
    33    14    57    1
    34    15    14    1
    35    15    58    1
    36    15    59    1
    37    16    15    1
    38    16    60    1
    39    16    61    1
    40    17    16    1
    41    17    62    1
    42    18    17   am
    43    19    18    2
    44    20    18    1
    45    21    20    1
    46    22    21    1
    47    22    63    1
    48    22    64    1
    49    22    65    1
    50    23    21    1
    51    23    66    1
    52    23    67    1
    53    23    68    1
    54    24    21    1
    55    24    69    1
    56    24    70    1
    57    24    71    1
    58    25    13   am
    59    26    25    2
    60    27    25    1
    61    27    72    1
    62    27    73    1
    63    28    27    1
    64    29    28    1
    65    30    29   ar
    66    31    30   ar
    67    32    31   ar
    68    33    32   ar
    69    33    74    1
    70    34    33   ar
    71    34    75    1
    72    35    34   ar
    73    35    76    1
    74    36    35   ar
    75    36    77    1
    76    37    36   ar
    77    37    29   ar
    78    37    32   ar
@<TRIPOS>MOLECULE
mol_348_akc_s00044_016_1729_1
>333.sdf
 40 42 0 0 0
SMALL
GASTEIGER

@<TRIPOS>ATOM
      1 C           1.7653   -1.0374   -1.7131 C.3     1  UNL1       -0.0596
      2 C           2.8688   -0.4298   -0.8476 C.3     1  UNL1       -0.0124
      3 C           2.3545    0.8141   -0.1218 C.3     1  UNL1       -0.0596
      4 C           3.3844   -1.4861    0.1380 C.3     1  UNL1        0.0919
      5 O           4.4650   -0.9555    0.9068 O.3     1  UNL1       -0.4916
      6 C           5.0058   -1.7994    1.8392 C.ar    1  UNL1        0.1240
      7 C           4.5986   -3.1083    2.0872 C.ar    1  UNL1        0.0231
      8 C           5.2453   -3.8554    3.0719 C.ar    1  UNL1        0.1431
      9 C           6.2970   -3.3401    3.8201 C.ar    1  UNL1        0.0255
     10 C           6.7017   -2.0243    3.5676 C.ar    1  UNL1       -0.0470
     11 C           6.0577   -1.2615    2.5862 C.ar    1  UNL1       -0.0191
     12 C           6.9423   -4.1906    4.8308 C.ar    1  UNL1       -0.0005
     13 C           6.4677   -5.4342    5.0054 C.ar    1  UNL1        0.0313
     14 C           5.3424   -5.9845    4.2341 C.ar    1  UNL1        0.3378
     15 O           4.9411   -7.1243    4.4403 O.2     1  UNL1       -0.2452
     16 O           4.7748   -5.1661    3.2746 O.2     1  UNL1       -0.4220
     17 C           8.0887   -3.7862    5.6624 C.ar    1  UNL1       -0.0170
     18 C           9.3947   -4.0386    5.2241 C.ar    1  UNL1       -0.0540
     19 C          10.4829   -3.5850    5.9704 C.ar    1  UNL1       -0.0612
     20 C          10.2706   -2.8823    7.1560 C.ar    1  UNL1       -0.0617
     21 C           8.9721   -2.6405    7.6038 C.ar    1  UNL1       -0.0612
     22 C           7.8814   -3.0931    6.8606 C.ar    1  UNL1       -0.0540
     23 H           1.3993   -0.3140   -2.4481 H       1  UNL1        0.0233
     24 H           2.1373   -1.9116   -2.2582 H       1  UNL1        0.0233
     25 H           0.9157   -1.3600   -1.1009 H       1  UNL1        0.0233
     26 H           3.6979   -0.1171   -1.4945 H       1  UNL1        0.0328
     27 H           1.5501    0.5615    0.5774 H       1  UNL1        0.0233
     28 H           3.1555    1.3007    0.4443 H       1  UNL1        0.0233
     29 H           1.9633    1.5455   -0.8370 H       1  UNL1        0.0233
     30 H           2.5652   -1.7880    0.8036 H       1  UNL1        0.0699
     31 H           3.7375   -2.3552   -0.4310 H       1  UNL1        0.0699
     32 H           3.7894   -3.5774    1.5402 H       1  UNL1        0.0691
     33 H           7.5177   -1.5709    4.1255 H       1  UNL1        0.0626
     34 H           6.3823   -0.2386    2.4029 H       1  UNL1        0.0654
     35 H           6.8922   -6.1197    5.7315 H       1  UNL1        0.0695
     36 H           9.5708   -4.5692    4.2912 H       1  UNL1        0.0624
     37 H          11.4952   -3.7698    5.6205 H       1  UNL1        0.0618
     38 H          11.1192   -2.5182    7.7297 H       1  UNL1        0.0618
     39 H           8.8089   -2.0893    8.5263 H       1  UNL1        0.0618
     40 H           6.8726   -2.8841    7.2096 H       1  UNL1        0.0624
@<TRIPOS>BOND
     1     1    23    1
     2     1    24    1
     3     1    25    1
     4     2     1    1
     5     2    26    1
     6     3     2    1
     7     3    27    1
     8     3    28    1
     9     3    29    1
    10     4     2    1
    11     4    30    1
    12     4    31    1
    13     5     4    1
    14     6     5    1
    15     7     6   ar
    16     7    32    1
    17     8     7   ar
    18     9     8   ar
    19    10     9   ar
    20    10    33    1
    21    11    10   ar
    22    11     6   ar
    23    11    34    1
    24    12     9   ar
    25    13    12   ar
    26    13    35    1
    27    14    13   ar
    28    15    14    2
    29    16    14   ar
    30    16     8   ar
    31    17    12    1
    32    18    17   ar
    33    18    36    1
    34    19    18   ar
    35    19    37    1
    36    20    19   ar
    37    20    38    1
    38    21    20   ar
    39    21    39    1
    40    22    21   ar
    41    22    17   ar
    42    22    40    1
@<TRIPOS>MOLECULE
mol_349_akc_jcbi201610017
>334.sdf
 27 28 0 0 0
SMALL
GASTEIGER

@<TRIPOS>ATOM
      1 N           5.9054    0.0391   -1.6794 N.4     1  UNL1        0.2191
      2 C           6.4083    0.9470   -0.6108 C.3     1  UNL1       -0.0258
      3 C           6.5311    0.2088    0.7238 C.3     1  UNL1        0.0384
      4 S           4.9161   -0.5091    1.1964 S.3     1  UNL1       -0.1192
      5 C           5.3656   -1.2964    2.7549 C.ar    1  UNL1        0.0187
      6 C           5.8247   -0.4815    3.7912 C.ar    1  UNL1       -0.0296
      7 C           6.1590   -1.0758    4.9879 C.ar    1  UNL1        0.0293
      8 N           6.0576   -2.3975    5.2153 N.ar    1  UNL1       -0.2549
      9 C           5.5883   -3.1873    4.2394 C.ar    1  UNL1        0.0734
     10 C           5.4642   -4.5411    4.5110 C.ar    1  UNL1       -0.0174
     11 C           4.9898   -5.4311    3.5521 C.ar    1  UNL1        0.0430
     12 CL          4.8487   -7.1030    3.9263 Cl      1  UNL1       -0.0835
     13 C           4.6287   -4.9754    2.2931 C.ar    1  UNL1       -0.0427
     14 C           4.7408   -3.6165    2.0004 C.ar    1  UNL1       -0.0501
     15 C           5.2218   -2.6937    2.9656 C.ar    1  UNL1        0.0139
     16 H           5.7600    0.5394   -2.5660 H       1  UNL1        0.1994
     17 H           6.5464   -0.7442   -1.8596 H       1  UNL1        0.1994
     18 H           4.9984   -0.3648   -1.3988 H       1  UNL1        0.1994
     19 H           7.3776    1.3244   -0.9452 H       1  UNL1        0.0821
     20 H           5.7012    1.7820   -0.5492 H       1  UNL1        0.0821
     21 H           7.2658   -0.5995    0.6406 H       1  UNL1        0.0432
     22 H           6.8723    0.9094    1.4913 H       1  UNL1        0.0432
     23 H           5.9100    0.5945    3.6947 H       1  UNL1        0.0644
     24 H           6.5245   -0.4902    5.8285 H       1  UNL1        0.0830
     25 H           5.7406   -4.9056    5.4982 H       1  UNL1        0.0653
     26 H           4.2545   -5.6678    1.5430 H       1  UNL1        0.0632
     27 H           4.4356   -3.2870    1.0119 H       1  UNL1        0.0625
@<TRIPOS>UNITY_ATOM_ATTR
1 1
charge 1
@<TRIPOS>BOND
     1     1    16    1
     2     1    17    1
     3     1    18    1
     4     2     1    1
     5     2    19    1
     6     2    20    1
     7     3     2    1
     8     3    21    1
     9     3    22    1
    10     4     3    1
    11     5     4    1
    12     6     5   ar
    13     6    23    1
    14     7     6   ar
    15     7    24    1
    16     8     7   ar
    17     9     8   ar
    18    10     9   ar
    19    10    25    1
    20    11    10   ar
    21    12    11    1
    22    13    11   ar
    23    13    26    1
    24    14    13   ar
    25    14    27    1
    26    15    14   ar
    27    15     5   ar
    28    15     9   ar
@<TRIPOS>MOLECULE
mol_34_akc_jejmech201703016
>34.sdf
 45 48 0 0 0
SMALL
GASTEIGER

@<TRIPOS>ATOM
      1 CL          0.1139   -0.8311   -5.0851 Cl      1  UNL1       -0.0835
      2 C           1.2832   -0.5560   -3.8539 C.ar    1  UNL1        0.0410
      3 C           1.5797    0.7477   -3.4592 C.ar    1  UNL1       -0.0427
      4 C           2.5339    0.9788   -2.4603 C.ar    1  UNL1       -0.0496
      5 C           3.2030   -0.0978   -1.8612 C.ar    1  UNL1        0.0217
      6 C           2.8790   -1.4076   -2.2583 C.ar    1  UNL1       -0.0496
      7 C           1.9247   -1.6360   -3.2537 C.ar    1  UNL1       -0.0427
      8 C           4.2386    0.0692   -0.8043 C.2     1  UNL1        0.1861
      9 O           4.4723   -0.8569   -0.0303 O.2     1  UNL1       -0.2873
     10 C           5.0101    1.3402   -0.7485 C.2     1  UNL1       -0.0138
     11 C           5.9897    1.4821    0.1583 C.2     1  UNL1       -0.0509
     12 C           6.8144    2.6902    0.2048 C.ar    1  UNL1       -0.0232
     13 C           6.6223    3.6422    1.2148 C.ar    1  UNL1       -0.0334
     14 C           7.4149    4.8000    1.2606 C.ar    1  UNL1        0.0319
     15 N           7.3274    5.6971    2.3585 N.pl3   1  UNL1       -0.3139
     16 C           8.1733    5.6173    3.5153 C.ar    1  UNL1        0.0420
     17 C           9.3054    4.7987    3.5244 C.ar    1  UNL1       -0.0218
     18 C          10.0193    4.6646    4.6969 C.ar    1  UNL1        0.0300
     19 N           9.6856    5.2756    5.8471 N.ar    1  UNL1       -0.2548
     20 C           8.6522    6.1283    5.8326 C.ar    1  UNL1        0.0738
     21 C           7.8907    6.3945    4.6705 C.ar    1  UNL1        0.0216
     22 C           6.9009    7.4069    4.7289 C.ar    1  UNL1       -0.0497
     23 C           6.6308    8.0826    5.9188 C.ar    1  UNL1       -0.0470
     24 C           7.3267    7.7331    7.0679 C.ar    1  UNL1        0.0199
     25 BR          6.9206    8.5800    8.7084 Br      1  UNL1       -0.0502
     26 C           8.3301    6.7698    7.0178 C.ar    1  UNL1       -0.0217
     27 C           8.4093    4.9841    0.2938 C.ar    1  UNL1       -0.0405
     28 C           8.6092    4.0359   -0.7091 C.ar    1  UNL1       -0.0595
     29 C           7.8153    2.8905   -0.7525 C.ar    1  UNL1       -0.0545
     30 H           1.0675    1.5885   -3.9203 H       1  UNL1        0.0632
     31 H           2.7184    2.0044   -2.1566 H       1  UNL1        0.0625
     32 H           3.3755   -2.2574   -1.7916 H       1  UNL1        0.0625
     33 H           1.6901   -2.6544   -3.5513 H       1  UNL1        0.0632
     34 H           4.8018    2.1230   -1.4660 H       1  UNL1        0.0656
     35 H           6.2287    0.7007    0.8759 H       1  UNL1        0.0625
     36 H           5.8730    3.4659    1.9830 H       1  UNL1        0.0642
     37 H           6.3631    5.7292    2.6895 H       1  UNL1        0.1522
     38 H           9.6218    4.2377    2.6531 H       1  UNL1        0.0651
     39 H          10.8961    4.0271    4.7439 H       1  UNL1        0.0830
     40 H           6.3569    7.6988    3.8325 H       1  UNL1        0.0625
     41 H           5.8804    8.8678    5.9385 H       1  UNL1        0.0629
     42 H           8.8866    6.5107    7.9151 H       1  UNL1        0.0650
     43 H           9.0444    5.8656    0.3367 H       1  UNL1        0.0636
     44 H           9.3954    4.1826   -1.4448 H       1  UNL1        0.0618
     45 H           7.9947    2.1471   -1.5259 H       1  UNL1        0.0623
@<TRIPOS>BOND
     1     2     1    1
     2     3     2   ar
     3     3    30    1
     4     4     3   ar
     5     4    31    1
     6     5     4   ar
     7     6     5   ar
     8     6    32    1
     9     7     6   ar
    10     7     2   ar
    11     7    33    1
    12     8     5    1
    13     9     8    2
    14    10     8    1
    15    10    34    1
    16    11    10    2
    17    11    35    1
    18    12    11    1
    19    13    12   ar
    20    13    36    1
    21    14    13   ar
    22    15    14    1
    23    15    37    1
    24    16    15    1
    25    17    16   ar
    26    17    38    1
    27    18    17   ar
    28    18    39    1
    29    19    18   ar
    30    20    19   ar
    31    21    20   ar
    32    21    16   ar
    33    22    21   ar
    34    22    40    1
    35    23    22   ar
    36    23    41    1
    37    24    23   ar
    38    25    24    1
    39    26    24   ar
    40    26    20   ar
    41    26    42    1
    42    27    14   ar
    43    27    43    1
    44    28    27   ar
    45    28    44    1
    46    29    28   ar
    47    29    12   ar
    48    29    45    1
@<TRIPOS>MOLECULE
mol_350_akc_jexppara201610009
>335.sdf
 33 35 0 0 0
SMALL
GASTEIGER

@<TRIPOS>ATOM
      1 O           2.2016    0.0510   -0.0273 O.3     1  UNL1       -0.5068
      2 C           0.8393    0.0062   -0.0507 C.ar    1  UNL1        0.1169
      3 C           0.1569   -1.2052   -0.0666 C.ar    1  UNL1       -0.0196
      4 C          -1.2393   -1.2020   -0.0862 C.ar    1  UNL1       -0.0497
      5 C          -1.9394    0.0112   -0.0885 C.ar    1  UNL1       -0.0052
      6 C          -3.4179    0.0204   -0.0806 C.2     1  UNL1        0.0527
      7 N          -4.0823   -1.0897   -0.0706 N.2     1  UNL1       -0.1899
      8 N          -5.4363   -0.9821   -0.0172 N.pl3   1  UNL1       -0.2371
      9 C          -6.1876   -2.1903   -0.0539 C.ar    1  UNL1        0.0589
     10 C          -5.5267   -3.4235   -0.0780 C.ar    1  UNL1       -0.0204
     11 C          -6.2667   -4.5853   -0.0497 C.ar    1  UNL1        0.0301
     12 N          -7.6090   -4.6128    0.0286 N.ar    1  UNL1       -0.2548
     13 C          -8.2588   -3.4433    0.0969 C.ar    1  UNL1        0.0742
     14 C          -9.6381   -3.4943    0.2180 C.ar    1  UNL1       -0.0173
     15 C         -10.3992   -2.3341    0.3104 C.ar    1  UNL1        0.0430
     16 CL        -12.1095   -2.4421    0.4649 Cl      1  UNL1       -0.0835
     17 C          -9.7854   -1.0899    0.2854 C.ar    1  UNL1       -0.0426
     18 C          -8.3969   -1.0143    0.1667 C.ar    1  UNL1       -0.0494
     19 C          -7.6047   -2.1853    0.0641 C.ar    1  UNL1        0.0230
     20 C          -1.2455    1.2232   -0.0744 C.ar    1  UNL1       -0.0497
     21 C           0.1518    1.2168   -0.0548 C.ar    1  UNL1       -0.0196
     22 H           2.5440   -0.8581   -0.0303 H       1  UNL1        0.2921
     23 H           0.6851   -2.1539   -0.0589 H       1  UNL1        0.0654
     24 H          -1.7759   -2.1481   -0.0910 H       1  UNL1        0.0625
     25 H          -3.9213    1.0034   -0.0657 H       1  UNL1        0.0851
     26 H          -5.8875   -0.2048   -0.4948 H       1  UNL1        0.1744
     27 H          -4.4457   -3.4814   -0.1308 H       1  UNL1        0.0652
     28 H          -5.7809   -5.5559   -0.0854 H       1  UNL1        0.0830
     29 H         -10.1232   -4.4670    0.2486 H       1  UNL1        0.0653
     30 H         -10.3761   -0.1813    0.3641 H       1  UNL1        0.0632
     31 H          -7.9387   -0.0295    0.1694 H       1  UNL1        0.0625
     32 H          -1.7738    2.1734   -0.0706 H       1  UNL1        0.0625
     33 H           0.7049    2.1519   -0.0384 H       1  UNL1        0.0654
@<TRIPOS>BOND
     1     1    22    1
     2     2     1    1
     3     3     2   ar
     4     3    23    1
     5     4     3   ar
     6     4    24    1
     7     5     4   ar
     8     6     5    1
     9     6    25    1
    10     7     6    2
    11     8     7    1
    12     8    26    1
    13     9     8    1
    14    10     9   ar
    15    10    27    1
    16    11    10   ar
    17    11    28    1
    18    12    11   ar
    19    13    12   ar
    20    14    13   ar
    21    14    29    1
    22    15    14   ar
    23    16    15    1
    24    17    15   ar
    25    17    30    1
    26    18    17   ar
    27    18    31    1
    28    19    18   ar
    29    19     9   ar
    30    19    13   ar
    31    20     5   ar
    32    20    32    1
    33    21    20   ar
    34    21     2   ar
    35    21    33    1
@<TRIPOS>MOLECULE
mol_351_akc_jparint201608003
>336.sdf
 52 54 0 0 0
SMALL
GASTEIGER

@<TRIPOS>ATOM
      1 C           1.7816    0.7216    0.5756 C.3     1  UNL1       -0.0425
      2 N           3.1473    0.4705   -0.0068 N.4     1  UNL1        0.2396
      3 C           3.1884    0.7935   -1.4936 C.3     1  UNL1       -0.0059
      4 C           2.3812   -0.0782   -2.4166 C.ar    1  UNL1       -0.0029
      5 C           1.0804    0.2705   -2.7967 C.ar    1  UNL1       -0.0533
      6 C           0.3452   -0.5465   -3.6568 C.ar    1  UNL1       -0.0576
      7 C           0.8651   -1.7544   -4.1521 C.ar    1  UNL1       -0.0420
      8 C           2.1787   -2.0749   -3.7872 C.ar    1  UNL1       -0.0576
      9 C           2.9331   -1.2501   -2.9455 C.ar    1  UNL1       -0.0533
     10 C           0.0631   -2.7110   -5.0497 C.3     1  UNL1       -0.0127
     11 C          -1.3629   -2.2150   -5.3778 C.3     1  UNL1       -0.0560
     12 C           0.7938   -2.9204   -6.3947 C.3     1  UNL1       -0.0560
     13 C          -0.0770   -4.0706   -4.3320 C.3     1  UNL1       -0.0560
     14 C           3.6838   -0.8789    0.4546 C.3     1  UNL1       -0.0053
     15 C           4.9853   -1.3949   -0.1184 C.ar    1  UNL1        0.0048
     16 C           6.0570   -0.5790   -0.5568 C.ar    1  UNL1       -0.0097
     17 C           6.3394    0.7237   -0.0809 C.ar    1  UNL1       -0.0536
     18 C           7.3011    1.5277   -0.6944 C.ar    1  UNL1       -0.0612
     19 C           7.9697    1.0674   -1.8221 C.ar    1  UNL1       -0.0612
     20 C           7.7822   -0.2462   -2.2443 C.ar    1  UNL1       -0.0540
     21 C           6.9078   -1.1004   -1.5610 C.ar    1  UNL1       -0.0174
     22 C           6.8833   -2.4696   -1.8531 C.ar    1  UNL1       -0.0540
     23 C           6.0376   -3.3237   -1.1584 C.ar    1  UNL1       -0.0607
     24 C           5.0676   -2.7865   -0.3214 C.ar    1  UNL1       -0.0529
     25 H           1.0574    0.0639    0.0907 H       1  UNL1        0.0778
     26 H           1.8217    0.5132    1.6482 H       1  UNL1        0.0778
     27 H           1.5318    1.7736    0.4152 H       1  UNL1        0.0778
     28 H           3.7653    1.1647    0.4188 H       1  UNL1        0.2037
     29 H           2.8505    1.8308   -1.5812 H       1  UNL1        0.0867
     30 H           4.2341    0.8157   -1.8143 H       1  UNL1        0.0867
     31 H           0.6337    1.2056   -2.4602 H       1  UNL1        0.0622
     32 H          -0.6621   -0.2187   -3.9285 H       1  UNL1        0.0621
     33 H           2.6510   -2.9841   -4.1616 H       1  UNL1        0.0621
     34 H           3.9546   -1.5388   -2.7409 H       1  UNL1        0.0622
     35 H          -1.3438   -1.2616   -5.9211 H       1  UNL1        0.0238
     36 H          -1.8973   -2.9354   -6.0079 H       1  UNL1        0.0238
     37 H          -1.9612   -2.0769   -4.4688 H       1  UNL1        0.0238
     38 H           1.7809   -3.3770   -6.2650 H       1  UNL1        0.0238
     39 H           0.2214   -3.5826   -7.0554 H       1  UNL1        0.0238
     40 H           0.9379   -1.9686   -6.9199 H       1  UNL1        0.0238
     41 H           0.8938   -4.5525   -4.1668 H       1  UNL1        0.0238
     42 H          -0.5536   -3.9505   -3.3516 H       1  UNL1        0.0238
     43 H          -0.6850   -4.7673   -4.9172 H       1  UNL1        0.0238
     44 H           3.7650   -0.8278    1.5467 H       1  UNL1        0.0867
     45 H           2.8849   -1.5904    0.2069 H       1  UNL1        0.0867
     46 H           5.8637    1.1030    0.8195 H       1  UNL1        0.0624
     47 H           7.5403    2.5096   -0.2927 H       1  UNL1        0.0618
     48 H           8.6815    1.7058   -2.3399 H       1  UNL1        0.0618
     49 H           8.3490   -0.6075   -3.1025 H       1  UNL1        0.0624
     50 H           7.5758   -2.8910   -2.5806 H       1  UNL1        0.0624
     51 H           6.0987   -4.3992   -1.3133 H       1  UNL1        0.0618
     52 H           4.3450   -3.4652    0.1308 H       1  UNL1        0.0622
@<TRIPOS>UNITY_ATOM_ATTR
2 1
charge 1
@<TRIPOS>BOND
     1     1    25    1
     2     1    26    1
     3     1    27    1
     4     3     2    1
     5     3    29    1
     6     3    30    1
     7     4     3    1
     8     5     4   ar
     9     5    31    1
    10     6     5   ar
    11     6    32    1
    12     7     6   ar
    13     8     7   ar
    14     8    33    1
    15     9     8   ar
    16     9     4   ar
    17     9    34    1
    18    10     7    1
    19    11    10    1
    20    11    35    1
    21    11    36    1
    22    11    37    1
    23    12    10    1
    24    12    38    1
    25    12    39    1
    26    12    40    1
    27    13    10    1
    28    13    41    1
    29    13    42    1
    30    13    43    1
    31    14     2    1
    32    14    44    1
    33    14    45    1
    34    15    14    1
    35    16    15   ar
    36    17    16   ar
    37    17    46    1
    38    18    17   ar
    39    18    47    1
    40    19    18   ar
    41    19    48    1
    42    20    19   ar
    43    20    49    1
    44    21    20   ar
    45    21    16   ar
    46    22    21   ar
    47    22    50    1
    48    23    22   ar
    49    23    51    1
    50    24    23   ar
    51    24    15   ar
    52    24    52    1
    53     2    28    1
    54     2     1    1
@<TRIPOS>MOLECULE
mol_352_akc_aac01545_16
>337.sdf
 51 54 0 0 0
SMALL
GASTEIGER

@<TRIPOS>ATOM
      1 O           0.9933    2.3047    1.0039 O.3     1  UNL1       -0.3872
      2 C           0.4705    0.9827    1.1189 C.3     1  UNL1        0.0802
      3 C           1.0198    0.3292    2.3926 C.3     1  UNL1       -0.0219
      4 C           2.5531    0.2729    2.4218 C.3     1  UNL1       -0.0372
      5 C           3.0109   -0.3856    3.7192 C.3     1  UNL1        0.0592
      6 C           4.5502   -0.5571    3.9431 C.3     1  UNL1        0.0671
      7 N           4.2859   -2.0018    4.0296 N.am    1  UNL1       -0.2630
      8 C           2.9647   -1.9226    3.7272 C.2     1  UNL1        0.2255
      9 O           2.1084   -2.7455    3.5145 O.2     1  UNL1       -0.2749
     10 C           5.1796   -3.0726    3.9558 C.ar    1  UNL1        0.0371
     11 C           4.7489   -4.3297    3.5096 C.ar    1  UNL1       -0.0375
     12 C           5.6567   -5.3786    3.3498 C.ar    1  UNL1       -0.0247
     13 C           6.9911   -5.1836    3.6730 C.ar    1  UNL1        0.1235
     14 F           7.8641   -6.1856    3.5088 F       1  UNL1       -0.2055
     15 C           7.4327   -3.9609    4.1613 C.ar    1  UNL1       -0.0247
     16 C           6.5288   -2.9020    4.2949 C.ar    1  UNL1       -0.0375
     17 C           5.1669    0.1647    5.2173 C.ar    1  UNL1       -0.0257
     18 C           4.7359   -0.1283    6.5301 C.ar    1  UNL1       -0.0533
     19 C           5.2720    0.5107    7.6512 C.ar    1  UNL1       -0.0199
     20 C           6.2645    1.4644    7.4783 C.ar    1  UNL1        0.1169
     21 O           6.8203    2.1111    8.5404 O.3     1  UNL1       -0.5068
     22 C           6.7204    1.7865    6.2095 C.ar    1  UNL1       -0.0199
     23 C           6.1743    1.1439    5.0953 C.ar    1  UNL1       -0.0533
     24 C          -1.0485    1.0114    1.1079 C.ar    1  UNL1       -0.0190
     25 C          -1.7532    0.3274    0.1001 C.ar    1  UNL1       -0.0534
     26 C          -3.1492    0.3267    0.0814 C.ar    1  UNL1       -0.0261
     27 C          -3.8500    1.0113    1.0663 C.ar    1  UNL1        0.1234
     28 F          -5.1888    1.0093    1.0474 F       1  UNL1       -0.2055
     29 C          -3.1806    1.6940    2.0729 C.ar    1  UNL1       -0.0261
     30 C          -1.7830    1.6937    2.0976 C.ar    1  UNL1       -0.0534
     31 H           0.4774    2.8848    1.5864 H       1  UNL1        0.2102
     32 H           0.8365    0.4264    0.2482 H       1  UNL1        0.0643
     33 H           0.6906    0.8936    3.2748 H       1  UNL1        0.0294
     34 H           0.6044   -0.6809    2.4951 H       1  UNL1        0.0294
     35 H           2.9286   -0.2785    1.5511 H       1  UNL1        0.0274
     36 H           2.9645    1.2870    2.3670 H       1  UNL1        0.0274
     37 H           2.4948    0.0417    4.5900 H       1  UNL1        0.0416
     38 H           5.1328   -0.3413    3.0338 H       1  UNL1        0.0561
     39 H           3.7098   -4.5063    3.2432 H       1  UNL1        0.0637
     40 H           5.3263   -6.3377    2.9640 H       1  UNL1        0.0647
     41 H           8.4775   -3.8362    4.4284 H       1  UNL1        0.0647
     42 H           6.8993   -1.9572    4.6820 H       1  UNL1        0.0637
     43 H           3.9592   -0.8773    6.6804 H       1  UNL1        0.0622
     44 H           4.9030    0.2494    8.6374 H       1  UNL1        0.0654
     45 H           6.4131    1.7750    9.3561 H       1  UNL1        0.2921
     46 H           7.4972    2.5349    6.0845 H       1  UNL1        0.0654
     47 H           6.5449    1.4128    4.1062 H       1  UNL1        0.0622
     48 H          -1.2160   -0.2163   -0.6746 H       1  UNL1        0.0622
     49 H          -3.6932   -0.2051   -0.6926 H       1  UNL1        0.0646
     50 H          -3.7480    2.2179    2.8346 H       1  UNL1        0.0646
     51 H          -1.2781    2.2242    2.8991 H       1  UNL1        0.0622
@<TRIPOS>BOND
     1     1    31    1
     2     2     1    1
     3     2    32    1
     4     3     2    1
     5     3    33    1
     6     3    34    1
     7     4     3    1
     8     4    35    1
     9     4    36    1
    10     5     4    1
    11     5    37    1
    12     6     5    1
    13     6    38    1
    14     7     6    1
    15     8     7   am
    16     8     5    1
    17     9     8    2
    18    10     7    1
    19    11    10   ar
    20    11    39    1
    21    12    11   ar
    22    12    40    1
    23    13    12   ar
    24    14    13    1
    25    15    13   ar
    26    15    41    1
    27    16    15   ar
    28    16    10   ar
    29    16    42    1
    30    17     6    1
    31    18    17   ar
    32    18    43    1
    33    19    18   ar
    34    19    44    1
    35    20    19   ar
    36    21    20    1
    37    21    45    1
    38    22    20   ar
    39    22    46    1
    40    23    22   ar
    41    23    17   ar
    42    23    47    1
    43    24     2    1
    44    25    24   ar
    45    25    48    1
    46    26    25   ar
    47    26    49    1
    48    27    26   ar
    49    28    27    1
    50    29    27   ar
    51    29    50    1
    52    30    29   ar
    53    30    24   ar
    54    30    51    1
@<TRIPOS>MOLECULE
mol_354_akc_aac00352_16
>339.sdf
 52 56 0 0 0
SMALL
GASTEIGER

@<TRIPOS>ATOM
      1 C           4.8216   -3.9161   -1.4429 C.3     1  UNL1        0.0817
      2 O           4.5514   -3.0744   -0.3213 O.3     1  UNL1       -0.4677
      3 C           5.0776   -1.8211   -0.4166 C.2     1  UNL1        0.3126
      4 O           5.7140   -1.3999   -1.3728 O.2     1  UNL1       -0.2505
      5 C           4.7040   -1.0099    0.7982 C.3     1  UNL1        0.0889
      6 C           5.2146    0.4273    0.7459 C.3     1  UNL1       -0.0218
      7 C           5.0541    0.8754    2.1893 C.3     1  UNL1        0.0126
      8 C           6.0406    1.9264    2.6678 C.3     1  UNL1       -0.0361
      9 C           7.1324    1.1258    3.3543 C.3     1  UNL1       -0.0387
     10 C           6.3984   -0.0816    3.9162 C.3     1  UNL1        0.0005
     11 N           5.2934   -0.3273    2.9998 N.3     1  UNL1       -0.2817
     12 C           5.2887   -1.5258    2.1165 C.3     1  UNL1        0.1395
     13 C           4.3120   -2.5659    2.7661 C.2     1  UNL1        0.2459
     14 O           3.1240   -2.3990    3.0114 O.2     1  UNL1       -0.2728
     15 N           5.0519   -3.7241    3.0246 N.am    1  UNL1       -0.2649
     16 C           4.5011   -4.8849    3.6879 C.3     1  UNL1        0.0449
     17 C           4.8020   -4.9071    5.1704 C.ar    1  UNL1       -0.0297
     18 C           4.2955   -3.9060    6.0126 C.ar    1  UNL1       -0.0571
     19 C           4.5909   -3.9055    7.3767 C.ar    1  UNL1       -0.0615
     20 C           5.3854   -4.9134    7.9179 C.ar    1  UNL1       -0.0617
     21 C           5.8765   -5.9268    7.0976 C.ar    1  UNL1       -0.0615
     22 C           5.5863   -5.9261    5.7313 C.ar    1  UNL1       -0.0571
     23 C           6.3725   -3.5957    2.5771 C.ar    1  UNL1        0.0421
     24 C           6.5715   -2.3263    2.0210 C.ar    1  UNL1        0.0039
     25 C           7.7957   -1.9952    1.4552 C.ar    1  UNL1       -0.0545
     26 C           8.8188   -2.9471    1.4714 C.ar    1  UNL1       -0.0613
     27 C           8.6140   -4.2103    2.0444 C.ar    1  UNL1       -0.0600
     28 C           7.3794   -4.5456    2.6043 C.ar    1  UNL1       -0.0399
     29 H           4.4524   -3.4611   -2.3671 H       1  UNL1        0.0661
     30 H           5.8937   -4.1247   -1.5122 H       1  UNL1        0.0661
     31 H           4.2932   -4.8611   -1.2891 H       1  UNL1        0.0661
     32 H           3.6057   -0.9712    0.8294 H       1  UNL1        0.0441
     33 H           6.2590    0.4772    0.4161 H       1  UNL1        0.0289
     34 H           4.6250    1.0431    0.0582 H       1  UNL1        0.0289
     35 H           4.0256    1.2231    2.3450 H       1  UNL1        0.0463
     36 H           6.4297    2.5627    1.8675 H       1  UNL1        0.0281
     37 H           5.5544    2.5740    3.4089 H       1  UNL1        0.0281
     38 H           7.6316    1.7067    4.1362 H       1  UNL1        0.0278
     39 H           7.8869    0.8184    2.6227 H       1  UNL1        0.0278
     40 H           5.9683    0.1868    4.8892 H       1  UNL1        0.0427
     41 H           7.0664   -0.9256    4.1052 H       1  UNL1        0.0427
     42 H           3.4125   -4.8972    3.5544 H       1  UNL1        0.0518
     43 H           4.8786   -5.7883    3.1948 H       1  UNL1        0.0518
     44 H           3.6673   -3.1137    5.6068 H       1  UNL1        0.0621
     45 H           4.2002   -3.1163    8.0133 H       1  UNL1        0.0618
     46 H           5.6197   -4.9081    8.9790 H       1  UNL1        0.0618
     47 H           6.4892   -6.7173    7.5232 H       1  UNL1        0.0618
     48 H           5.9798   -6.7265    5.1101 H       1  UNL1        0.0621
     49 H           7.9677   -1.0267    0.9976 H       1  UNL1        0.0622
     50 H           9.7848   -2.7084    1.0310 H       1  UNL1        0.0618
     51 H           9.4209   -4.9405    2.0427 H       1  UNL1        0.0618
     52 H           7.2302   -5.5301    3.0312 H       1  UNL1        0.0636
@<TRIPOS>BOND
     1     1    29    1
     2     1    30    1
     3     1    31    1
     4     2     1    1
     5     3     2    1
     6     4     3    2
     7     6     5    1
     8     6    33    1
     9     6    34    1
    10     7     6    1
    11     7    35    1
    12     8     7    1
    13     8    36    1
    14     8    37    1
    15     9     8    1
    16     9    38    1
    17     9    39    1
    18    10     9    1
    19    10    40    1
    20    10    41    1
    21    11    10    1
    22    11     7    1
    23    12    11    1
    24    12     5    1
    25    12    13    1
    26    14    13    2
    27    15    13   am
    28    16    15    1
    29    16    42    1
    30    16    43    1
    31    17    16    1
    32    18    17   ar
    33    18    44    1
    34    19    18   ar
    35    19    45    1
    36    20    19   ar
    37    20    46    1
    38    21    20   ar
    39    21    47    1
    40    22    21   ar
    41    22    17   ar
    42    22    48    1
    43    23    15    1
    44    24    23   ar
    45    24    12    1
    46    25    24   ar
    47    25    49    1
    48    26    25   ar
    49    26    50    1
    50    27    26   ar
    51    27    51    1
    52    28    27   ar
    53    28    23   ar
    54    28    52    1
    55     5    32    1
    56     5     3    1
@<TRIPOS>MOLECULE
mol_355_akc_s10495_016_1282_x
>340.sdf
 42 42 0 0 0
SMALL
GASTEIGER

@<TRIPOS>ATOM
      1 H           2.4445    0.7127   -0.6371 H       1  UNL1        0.0331
      2 C           2.1665   -0.1211    0.0265 C.3     1  UNL1       -0.0087
      3 C           2.8146    0.1981    1.3908 C.3     1  UNL1       -0.0436
      4 C           4.3376    0.3220    1.2973 C.3     1  UNL1       -0.0317
      5 C           4.9778   -0.7750    0.4907 C.2     1  UNL1       -0.0765
      6 C           6.4561   -0.9519    0.6766 C.3     1  UNL1       -0.0438
      7 C           4.2619   -1.5520   -0.3395 C.2     1  UNL1       -0.0847
      8 C           2.7840   -1.4081   -0.5637 C.3     1  UNL1       -0.0291
      9 C           0.5994   -0.1550    0.0777 C.3     1  UNL1        0.0667
     10 C           0.0499   -1.1913    1.0711 C.3     1  UNL1       -0.0358
     11 O           0.1464    1.1397    0.5062 O.3     1  UNL1       -0.3886
     12 C           0.0042   -0.3808   -1.3369 C.3     1  UNL1       -0.0206
     13 C          -1.5285   -0.3033   -1.3943 C.3     1  UNL1       -0.0319
     14 C          -2.0442   -0.4541   -2.7991 C.2     1  UNL1       -0.0852
     15 C          -2.2822    0.5364   -3.6792 C.2     1  UNL1       -0.0796
     16 C          -2.0069    1.9921   -3.4223 C.3     1  UNL1       -0.0440
     17 C          -2.8463    0.2129   -5.0360 C.3     1  UNL1       -0.0440
     18 H           2.4203    1.1329    1.8029 H       1  UNL1        0.0272
     19 H           2.5810   -0.5939    2.1131 H       1  UNL1        0.0272
     20 H           4.7419    0.3181    2.3170 H       1  UNL1        0.0310
     21 H           4.6030    1.2884    0.8501 H       1  UNL1        0.0310
     22 H           6.9839   -0.0247    0.4303 H       1  UNL1        0.0274
     23 H           6.6776   -1.2130    1.7167 H       1  UNL1        0.0274
     24 H           6.8597   -1.7465    0.0404 H       1  UNL1        0.0274
     25 H           4.7539   -2.3464   -0.8976 H       1  UNL1        0.0572
     26 H           2.6066   -1.4275   -1.6454 H       1  UNL1        0.0311
     27 H           2.3038   -2.2988   -0.1447 H       1  UNL1        0.0311
     28 H           0.4722   -1.0589    2.0714 H       1  UNL1        0.0257
     29 H          -1.0302   -1.0740    1.2094 H       1  UNL1        0.0257
     30 H           0.2447   -2.2166    0.7443 H       1  UNL1        0.0257
     31 H           0.3282    1.2320    1.4560 H       1  UNL1        0.2102
     32 H           0.4108    0.3854   -2.0111 H       1  UNL1        0.0296
     33 H           0.3185   -1.3546   -1.7302 H       1  UNL1        0.0296
     34 H          -1.9701   -1.1118   -0.8023 H       1  UNL1        0.0308
     35 H          -1.8949    0.6264   -0.9461 H       1  UNL1        0.0308
     36 H          -2.2607   -1.4795   -3.0986 H       1  UNL1        0.0571
     37 H          -1.2972    2.3738   -4.1642 H       1  UNL1        0.0274
     38 H          -2.9331    2.5706   -3.4974 H       1  UNL1        0.0274
     39 H          -1.5748    2.1853   -2.4373 H       1  UNL1        0.0274
     40 H          -2.1900   -0.4792   -5.5738 H       1  UNL1        0.0274
     41 H          -3.8397   -0.2376   -4.9408 H       1  UNL1        0.0274
     42 H          -2.9508    1.1134   -5.6505 H       1  UNL1        0.0274
@<TRIPOS>BOND
     1     3     2    1
     2     3    18    1
     3     3    19    1
     4     4     3    1
     5     4    20    1
     6     4    21    1
     7     5     4    1
     8     6     5    1
     9     6    22    1
    10     6    23    1
    11     6    24    1
    12     7     5    2
    13     7    25    1
    14     8     7    1
    15     8     2    1
    16     8    26    1
    17     8    27    1
    18     9    10    1
    19    10    28    1
    20    10    29    1
    21    10    30    1
    22    11     9    1
    23    11    31    1
    24    12     9    1
    25    12    32    1
    26    12    33    1
    27    13    12    1
    28    13    34    1
    29    13    35    1
    30    14    13    1
    31    14    36    1
    32    15    14    2
    33    16    15    1
    34    16    37    1
    35    16    38    1
    36    16    39    1
    37    17    15    1
    38    17    40    1
    39    17    41    1
    40    17    42    1
    41     2     9    1
    42     2     1    1
@<TRIPOS>MOLECULE
mol_356_akc_acsjnatprod6b00256
>341.sdf
 48 52 0 0 0
SMALL
GASTEIGER

@<TRIPOS>ATOM
      1 H           2.1469   -0.9700    0.1327 H       1  UNL1        0.2580
      2 N           1.5795   -0.1420    0.2439 N.2     1  UNL1       -0.2749
      3 C           0.2605   -0.1988   -0.0302 C.cat   1  UNL1        0.3327
      4 N          -0.2977   -1.3913   -0.3795 N.pl3   1  UNL1       -0.2341
      5 C          -1.6927   -1.4275   -0.8224 C.3     1  UNL1        0.0971
      6 C          -2.5783   -0.4533   -0.0500 C.3     1  UNL1        0.0151
      7 C          -1.9637    0.9135    0.0284 C.3     1  UNL1        0.0752
      8 H          -2.2675    1.5041   -0.8442 H       1  UNL1        0.0672
      9 C          -2.3136    1.6567    1.3208 C.3     1  UNL1       -0.0179
     10 C          -1.2065    2.7065    1.4823 C.3     1  UNL1       -0.0178
     11 C          -0.0386    2.2014    0.6168 C.3     1  UNL1        0.0753
     12 H           0.0250    2.9107   -0.2120 H       1  UNL1        0.0672
     13 C           1.3163    2.1002    1.2795 C.3     1  UNL1        0.0169
     14 C           2.2502    1.1379    0.5328 C.3     1  UNL1        0.1034
     15 C           2.8929    1.5509   -0.7822 C.ar    1  UNL1       -0.0109
     16 C           4.1994    1.1024   -1.0473 C.ar    1  UNL1       -0.0553
     17 C           4.7918    1.3023   -2.3035 C.ar    1  UNL1       -0.0614
     18 C           4.1054    1.9667   -3.3022 C.ar    1  UNL1       -0.0617
     19 C           2.8230    2.4432   -3.0580 C.ar    1  UNL1       -0.0614
     20 C           2.2246    2.2296   -1.8098 C.ar    1  UNL1       -0.0553
     21 N          -0.5011    0.9194    0.0487 N.pl3   1  UNL1       -0.2220
     22 C          -2.3180   -2.7932   -0.6249 C.ar    1  UNL1       -0.0128
     23 C          -2.2486   -3.4547    0.6129 C.ar    1  UNL1       -0.0555
     24 C          -3.1586   -4.4678    0.9172 C.ar    1  UNL1       -0.0614
     25 C          -4.1208   -4.8480   -0.0164 C.ar    1  UNL1       -0.0617
     26 C          -4.1422   -4.2577   -1.2771 C.ar    1  UNL1       -0.0614
     27 C          -3.2386   -3.2439   -1.5869 C.ar    1  UNL1       -0.0555
     28 H           0.2697   -2.2254   -0.4350 H       1  UNL1        0.2449
     29 H          -1.6745   -1.1810   -1.8916 H       1  UNL1        0.0721
     30 H          -2.7548   -0.8298    0.9666 H       1  UNL1        0.0332
     31 H          -3.5688   -0.3854   -0.5177 H       1  UNL1        0.0332
     32 H          -2.2535    0.9693    2.1753 H       1  UNL1        0.0298
     33 H          -3.3199    2.0841    1.3065 H       1  UNL1        0.0298
     34 H          -1.5613    3.6746    1.1109 H       1  UNL1        0.0298
     35 H          -0.9382    2.8337    2.5352 H       1  UNL1        0.0298
     36 H           1.1747    1.7005    2.2926 H       1  UNL1        0.0334
     37 H           1.7693    3.0919    1.3897 H       1  UNL1        0.0334
     38 H           3.0545    0.9127    1.2373 H       1  UNL1        0.0744
     39 H           4.7660    0.5547   -0.2994 H       1  UNL1        0.0621
     40 H           5.7979    0.9294   -2.4931 H       1  UNL1        0.0618
     41 H           4.5607    2.1150   -4.2808 H       1  UNL1        0.0618
     42 H           2.2803    2.9681   -3.8402 H       1  UNL1        0.0618
     43 H           1.2124    2.5936   -1.7118 H       1  UNL1        0.0621
     44 H          -1.5655   -3.1208    1.3906 H       1  UNL1        0.0621
     45 H          -3.1583   -4.9250    1.9040 H       1  UNL1        0.0618
     46 H          -4.8696   -5.5927    0.2448 H       1  UNL1        0.0618
     47 H          -4.8986   -4.5508   -2.0014 H       1  UNL1        0.0618
     48 H          -3.3222   -2.7494   -2.5526 H       1  UNL1        0.0621
@<TRIPOS>UNITY_ATOM_ATTR
2 1
charge 1
@<TRIPOS>BOND
     1     3     2    2
     2     4     3    1
     3     5     4    1
     4     6     5    1
     5     7     6    1
     6     9     7    1
     7    10     9    1
     8    11    10    1
     9    13    11    1
    10    14    13    1
    11    14     2    1
    12    16    15   ar
    13    16    39    1
    14    17    16   ar
    15    17    40    1
    16    18    17   ar
    17    18    41    1
    18    19    18   ar
    19    19    42    1
    20    20    19   ar
    21    20    15   ar
    22    20    43    1
    23    21    11    1
    24    21     3    1
    25    21     7    1
    26    23    22   ar
    27    23    44    1
    28    24    23   ar
    29    24    45    1
    30    25    24   ar
    31    25    46    1
    32    26    25   ar
    33    26    47    1
    34    27    26   ar
    35    27    22   ar
    36    27    48    1
    37     2     1    1
    38     4    28    1
    39     5    29    1
    40    22     5    1
    41     6    30    1
    42     6    31    1
    43     7     8    1
    44     9    32    1
    45     9    33    1
    46    10    34    1
    47    10    35    1
    48    11    12    1
    49    13    36    1
    50    13    37    1
    51    14    38    1
    52    15    14    1
@<TRIPOS>MOLECULE
mol_357_akc_acsjnatprod6b00256
>342.sdf
 57 60 0 0 0
SMALL
GASTEIGER

@<TRIPOS>ATOM
      1 H           4.4410   -1.7706   -0.3111 H       1  UNL1        0.2577
      2 N           4.4927   -0.7612   -0.3111 N.2     1  UNL1       -0.2793
      3 C           3.4884   -0.0563   -0.8760 C.cat   1  UNL1        0.3321
      4 N           2.3312   -0.6920   -1.1550 N.pl3   1  UNL1       -0.2381
      5 C           1.0312    0.0155   -1.1630 C.3     1  UNL1        0.0719
      6 H           0.6575   -0.0213   -2.1933 H       1  UNL1        0.0670
      7 C           0.0410   -0.6839   -0.2089 C.3     1  UNL1       -0.0209
      8 C          -0.1327   -2.1846   -0.4487 C.3     1  UNL1       -0.0480
      9 C          -1.0058   -2.8480    0.6247 C.3     1  UNL1       -0.0293
     10 C          -2.4619   -2.3844    0.6239 C.3     1  UNL1        0.0481
     11 O          -3.0318   -2.4205   -0.6799 O.3     1  UNL1       -0.3752
     12 C          -3.3097   -3.7494   -1.1271 C.3     1  UNL1        0.0727
     13 C          -4.0782   -3.7146   -2.4222 C.ar    1  UNL1       -0.0219
     14 C          -3.8226   -4.6717   -3.4157 C.ar    1  UNL1       -0.0564
     15 C          -4.5745   -4.6916   -4.5909 C.ar    1  UNL1       -0.0614
     16 C          -5.5942   -3.7624   -4.7823 C.ar    1  UNL1       -0.0617
     17 C          -5.8623   -2.8100   -3.8004 C.ar    1  UNL1       -0.0614
     18 C          -5.1110   -2.7892   -2.6249 C.ar    1  UNL1       -0.0564
     19 C           1.1676    1.4792   -0.7016 C.3     1  UNL1        0.0109
     20 C           2.4040    2.1098   -1.3063 C.3     1  UNL1        0.0748
     21 H           2.2911    2.1988   -2.3938 H       1  UNL1        0.0672
     22 C           2.7725    3.4825   -0.7095 C.3     1  UNL1       -0.0179
     23 C           3.9873    3.2033    0.1947 C.3     1  UNL1       -0.0179
     24 C           4.7066    2.0837   -0.5555 C.3     1  UNL1        0.0750
     25 H           5.1713    2.5273   -1.4468 H       1  UNL1        0.0672
     26 C           5.7902    1.3195    0.1851 C.3     1  UNL1        0.0124
     27 C           5.4082   -0.0903    0.6237 C.3     1  UNL1        0.0754
     28 H           6.3180   -0.7002    0.6599 H       1  UNL1        0.0690
     29 C           4.7841   -0.1024    2.0178 C.3     1  UNL1       -0.0313
     30 N           3.5873    1.2709   -1.0379 N.pl3   1  UNL1       -0.2220
     31 H           2.3598   -1.6965   -1.2595 H       1  UNL1        0.2446
     32 H          -0.9298   -0.1805   -0.2857 H       1  UNL1        0.0297
     33 H           0.3900   -0.5483    0.8238 H       1  UNL1        0.0297
     34 H           0.8384   -2.6877   -0.4149 H       1  UNL1        0.0267
     35 H          -0.5422   -2.3578   -1.4501 H       1  UNL1        0.0267
     36 H          -0.5738   -2.6764    1.6184 H       1  UNL1        0.0287
     37 H          -0.9723   -3.9313    0.4605 H       1  UNL1        0.0287
     38 H          -2.5184   -1.3478    0.9729 H       1  UNL1        0.0560
     39 H          -3.0614   -2.9816    1.3207 H       1  UNL1        0.0560
     40 H          -3.9013   -4.2877   -0.3787 H       1  UNL1        0.0610
     41 H          -2.3612   -4.2753   -1.2812 H       1  UNL1        0.0610
     42 H          -3.0421   -5.4160   -3.2780 H       1  UNL1        0.0621
     43 H          -4.3730   -5.4398   -5.3536 H       1  UNL1        0.0618
     44 H          -6.1873   -3.7847   -5.6935 H       1  UNL1        0.0618
     45 H          -6.6626   -2.0901   -3.9458 H       1  UNL1        0.0618
     46 H          -5.3381   -2.0485   -1.8608 H       1  UNL1        0.0621
     47 H           0.2695    2.0486   -0.9682 H       1  UNL1        0.0328
     48 H           1.2579    1.5146    0.3912 H       1  UNL1        0.0328
     49 H           1.9495    3.9591   -0.1692 H       1  UNL1        0.0298
     50 H           3.0771    4.1580   -1.5182 H       1  UNL1        0.0298
     51 H           4.6114    4.0886    0.3402 H       1  UNL1        0.0298
     52 H           3.6406    2.8519    1.1740 H       1  UNL1        0.0298
     53 H           6.6273    1.2055   -0.5176 H       1  UNL1        0.0330
     54 H           6.1944    1.9065    1.0182 H       1  UNL1        0.0330
     55 H           3.8437    0.4609    2.0403 H       1  UNL1        0.0263
     56 H           4.5515   -1.1289    2.3214 H       1  UNL1        0.0263
     57 H           5.4632    0.3263    2.7613 H       1  UNL1        0.0263
@<TRIPOS>UNITY_ATOM_ATTR
2 1
charge 1
@<TRIPOS>BOND
     1     2     1    1
     2     3     2    2
     3     4     3    1
     4     4    31    1
     5     5     4    1
     6     5     6    1
     7     7     5    1
     8     7    32    1
     9     7    33    1
    10     8     7    1
    11     8    34    1
    12     8    35    1
    13     9     8    1
    14     9    36    1
    15     9    37    1
    16    10     9    1
    17    10    38    1
    18    10    39    1
    19    11    10    1
    20    12    11    1
    21    12    40    1
    22    12    41    1
    23    13    12    1
    24    14    13   ar
    25    14    42    1
    26    15    14   ar
    27    15    43    1
    28    16    15   ar
    29    16    44    1
    30    17    16   ar
    31    17    45    1
    32    18    17   ar
    33    18    13   ar
    34    18    46    1
    35    19     5    1
    36    19    47    1
    37    19    48    1
    38    20    19    1
    39    20    21    1
    40    22    20    1
    41    22    49    1
    42    22    50    1
    43    23    22    1
    44    23    51    1
    45    23    52    1
    46    24    23    1
    47    24    25    1
    48    26    24    1
    49    26    53    1
    50    26    54    1
    51    27    26    1
    52    27     2    1
    53    27    28    1
    54    29    27    1
    55    29    55    1
    56    29    56    1
    57    29    57    1
    58    30    24    1
    59    30     3    1
    60    30    20    1
@<TRIPOS>MOLECULE
mol_358_akc_jexppara201603007
>343.sdf
 44 46 0 0 0
SMALL
GASTEIGER

@<TRIPOS>ATOM
      1 C           1.2886    0.5707   -1.0869 C.3     1  UNL1        0.0788
      2 O           2.3587    0.0820   -0.2821 O.3     1  UNL1       -0.4951
      3 C           3.1566   -0.8623   -0.8649 C.ar    1  UNL1        0.1201
      4 C           3.3003   -1.0737   -2.2300 C.ar    1  UNL1       -0.0194
      5 C           4.0775   -2.1380   -2.7036 C.ar    1  UNL1       -0.0506
      6 C           4.7490   -3.0033   -1.8252 C.ar    1  UNL1       -0.0171
      7 C           4.7014   -2.6857   -0.4572 C.ar    1  UNL1       -0.0506
      8 C           3.8824   -1.6572    0.0194 C.ar    1  UNL1       -0.0194
      9 C           5.4478   -4.2315   -2.3254 C.ar    1  UNL1       -0.0102
     10 C           6.2602   -4.1011   -3.4780 C.ar    1  UNL1       -0.0534
     11 C           6.9751   -5.1756   -4.0140 C.ar    1  UNL1       -0.0611
     12 C           6.9129   -6.4100   -3.3967 C.ar    1  UNL1       -0.0611
     13 C           6.1003   -6.5830   -2.2762 C.ar    1  UNL1       -0.0534
     14 C           5.3323   -5.5248   -1.7205 C.ar    1  UNL1       -0.0100
     15 C           4.4620   -5.8463   -0.5454 C.ar    1  UNL1       -0.0104
     16 C           4.9153   -6.6883    0.4892 C.ar    1  UNL1       -0.0120
     17 C           4.1288   -6.9592    1.6150 C.ar    1  UNL1        0.1241
     18 O           4.4620   -7.7999    2.6437 O.3     1  UNL1       -0.4950
     19 C           5.6031   -8.6297    2.4506 C.3     1  UNL1        0.0788
     20 C           2.9001   -6.3206    1.7660 C.ar    1  UNL1        0.0218
     21 C           2.4334   -5.4687    0.7694 C.ar    1  UNL1        0.1241
     22 O           1.2693   -4.7484    0.8503 O.3     1  UNL1       -0.4950
     23 C           0.9470   -4.2966    2.1652 C.3     1  UNL1        0.0788
     24 C           3.1627   -5.3154   -0.4099 C.ar    1  UNL1       -0.0120
     25 H           1.6645    1.2005   -1.8973 H       1  UNL1        0.0660
     26 H           0.6727   -0.2482   -1.4764 H       1  UNL1        0.0660
     27 H           0.6497    1.1938   -0.4534 H       1  UNL1        0.0660
     28 H           2.8071   -0.4365   -2.9597 H       1  UNL1        0.0654
     29 H           4.1219   -2.3021   -3.7765 H       1  UNL1        0.0625
     30 H           5.2377   -3.2951    0.2727 H       1  UNL1        0.0625
     31 H           3.7815   -1.5060    1.0910 H       1  UNL1        0.0654
     32 H           6.3511   -3.1387   -3.9787 H       1  UNL1        0.0624
     33 H           7.5817   -5.0363   -4.9039 H       1  UNL1        0.0618
     34 H           7.4864   -7.2480   -3.7875 H       1  UNL1        0.0618
     35 H           6.0564   -7.5790   -1.8417 H       1  UNL1        0.0624
     36 H           5.9124   -7.1170    0.4156 H       1  UNL1        0.0660
     37 H           5.5148   -9.2287    1.5382 H       1  UNL1        0.0660
     38 H           6.5185   -8.0310    2.4447 H       1  UNL1        0.0660
     39 H           5.6611   -9.3208    3.2969 H       1  UNL1        0.0660
     40 H           2.3196   -6.5085    2.6627 H       1  UNL1        0.0691
     41 H           0.4594   -5.0959    2.7322 H       1  UNL1        0.0660
     42 H           1.8254   -3.9171    2.7024 H       1  UNL1        0.0660
     43 H           0.2360   -3.4678    2.0723 H       1  UNL1        0.0660
     44 H           2.7399   -4.6936   -1.1922 H       1  UNL1        0.0660
@<TRIPOS>BOND
     1     1    25    1
     2     1    26    1
     3     1    27    1
     4     2     1    1
     5     3     2    1
     6     4     3   ar
     7     4    28    1
     8     5     4   ar
     9     5    29    1
    10     6     5   ar
    11     7     6   ar
    12     7    30    1
    13     8     7   ar
    14     8     3   ar
    15     8    31    1
    16     9     6    1
    17    10     9   ar
    18    10    32    1
    19    11    10   ar
    20    11    33    1
    21    12    11   ar
    22    12    34    1
    23    13    12   ar
    24    13    35    1
    25    14    13   ar
    26    14     9   ar
    27    15    14    1
    28    16    15   ar
    29    16    36    1
    30    17    16   ar
    31    18    17    1
    32    19    18    1
    33    19    37    1
    34    19    38    1
    35    19    39    1
    36    20    17   ar
    37    20    40    1
    38    21    20   ar
    39    22    21    1
    40    23    22    1
    41    23    41    1
    42    23    42    1
    43    23    43    1
    44    24    21   ar
    45    24    15   ar
    46    24    44    1
@<TRIPOS>MOLECULE
mol_359_akc_s00109_016_1384_5
>344.sdf
 51 51 0 0 0
SMALL
GASTEIGER

@<TRIPOS>ATOM
      1 C           9.4913   -7.7565    1.5803 C.3     1  UNL1       -0.0653
      2 C           8.1951   -7.4364    2.3080 C.3     1  UNL1       -0.0559
      3 C           8.2161   -6.0117    2.8585 C.3     1  UNL1       -0.0530
      4 C           6.9167   -5.6687    3.5891 C.3     1  UNL1       -0.0496
      5 C           6.9287   -4.2578    4.1848 C.3     1  UNL1       -0.0345
      6 C           7.0233   -3.1660    3.1600 C.2     1  UNL1       -0.0840
      7 C           8.0740   -2.3481    3.0051 C.2     1  UNL1       -0.0653
      8 C           8.0833   -1.2196    2.1041 C.2     1  UNL1       -0.0547
      9 C           8.0024   -1.2254    0.7651 C.2     1  UNL1        0.0064
     10 C           7.9233   -2.3079   -0.2792 C.3     1  UNL1        0.0096
     11 C           6.6581   -3.1753   -0.2409 C.3     1  UNL1       -0.0243
     12 C           6.6589   -4.2596   -1.2884 C.2     1  UNL1       -0.0871
     13 C           5.5957   -4.6926   -1.9824 C.2     1  UNL1       -0.0879
     14 C           4.1960   -4.1520   -1.8958 C.3     1  UNL1       -0.0343
     15 C           3.2371   -5.1167   -1.1965 C.3     1  UNL1       -0.0395
     16 C           3.6862   -5.4322    0.2349 C.3     1  UNL1        0.0451
     17 C           2.7536   -6.3902    0.9294 C.2     1  UNL1        0.3047
     18 O           3.3654   -7.1357    1.8788 O.3     1  UNL1       -0.4806
     19 O           1.5571   -6.4767    0.7062 O.2     1  UNL1       -0.2510
     20 C           7.9516   -1.5357   -1.5757 C.2     1  UNL1       -0.0726
     21 C           8.0110   -0.2108   -1.4192 C.2     1  UNL1       -0.0180
     22 C           8.0732    0.0695    0.0255 C.2     1  UNL1        0.1824
     23 O           8.1740    1.1790    0.5017 O.2     1  UNL1       -0.2876
     24 H           9.4561   -8.7689    1.1669 H       1  UNL1        0.0230
     25 H           9.6597   -7.0570    0.7551 H       1  UNL1        0.0230
     26 H          10.3468   -7.6954    2.2609 H       1  UNL1        0.0230
     27 H           7.3536   -7.5552    1.6155 H       1  UNL1        0.0263
     28 H           8.0502   -8.1539    3.1239 H       1  UNL1        0.0263
     29 H           9.0629   -5.8945    3.5457 H       1  UNL1        0.0265
     30 H           8.3729   -5.3143    2.0279 H       1  UNL1        0.0265
     31 H           6.0665   -5.7792    2.9054 H       1  UNL1        0.0268
     32 H           6.7602   -6.3861    4.4051 H       1  UNL1        0.0268
     33 H           5.9902   -4.1039    4.7312 H       1  UNL1        0.0307
     34 H           7.7363   -4.1730    4.9207 H       1  UNL1        0.0307
     35 H           6.1289   -3.0131    2.5634 H       1  UNL1        0.0572
     36 H           8.9388   -2.4366    3.6613 H       1  UNL1        0.0615
     37 H           8.2107   -0.2621    2.6141 H       1  UNL1        0.0622
     38 H           8.8195   -2.9377   -0.2158 H       1  UNL1        0.0396
     39 H           6.5922   -3.7101    0.7036 H       1  UNL1        0.0316
     40 H           5.7738   -2.5313   -0.3040 H       1  UNL1        0.0316
     41 H           7.6148   -4.7565   -1.4545 H       1  UNL1        0.0569
     42 H           5.7376   -5.5337   -2.6605 H       1  UNL1        0.0569
     43 H           4.1604   -3.1877   -1.3809 H       1  UNL1        0.0307
     44 H           3.8478   -3.9543   -2.9158 H       1  UNL1        0.0307
     45 H           2.2372   -4.6639   -1.1840 H       1  UNL1        0.0273
     46 H           3.1482   -6.0425   -1.7787 H       1  UNL1        0.0273
     47 H           4.6798   -5.8889    0.2099 H       1  UNL1        0.0378
     48 H           3.7372   -4.5137    0.8293 H       1  UNL1        0.0378
     49 H           4.3247   -6.9822    1.9552 H       1  UNL1        0.2951
     50 H           7.8835   -2.0199   -2.5424 H       1  UNL1        0.0579
     51 H           8.0128    0.5548   -2.1746 H       1  UNL1        0.0653
@<TRIPOS>BOND
     1     1    24    1
     2     1    25    1
     3     1    26    1
     4     2     1    1
     5     2    27    1
     6     2    28    1
     7     3     2    1
     8     3    29    1
     9     3    30    1
    10     4     3    1
    11     4    31    1
    12     4    32    1
    13     5     4    1
    14     5    33    1
    15     5    34    1
    16     6     5    1
    17     6    35    1
    18     7     6    2
    19     7    36    1
    20     8     7    1
    21     8    37    1
    22     9     8    2
    23    10     9    1
    24    10    38    1
    25    11    10    1
    26    11    39    1
    27    11    40    1
    28    12    11    1
    29    12    41    1
    30    13    12    2
    31    13    42    1
    32    14    13    1
    33    14    43    1
    34    14    44    1
    35    15    14    1
    36    15    45    1
    37    15    46    1
    38    16    15    1
    39    16    47    1
    40    16    48    1
    41    17    16    1
    42    18    17    1
    43    18    49    1
    44    19    17    2
    45    20    10    1
    46    20    50    1
    47    21    20    2
    48    21    51    1
    49    22    21    1
    50    22     9    1
    51    23    22    2
@<TRIPOS>MOLECULE
mol_35_akc_101016c
>35.sdf
 44 46 0 0 0
SMALL
GASTEIGER

@<TRIPOS>ATOM
      1 C           2.6030   -1.1961    1.6626 C.3     1  UNL1       -0.0121
      2 S           3.6888   -0.3795    0.4660 S.3     1  UNL1       -0.1091
      3 C           3.7370   -1.6176   -0.8228 C.ar    1  UNL1        0.1023
      4 C           4.4677   -1.3514   -1.9546 C.ar    1  UNL1       -0.0042
      5 C           4.4796   -2.3426   -2.9054 C.ar    1  UNL1        0.0700
      6 C           5.2441   -2.1484   -4.1462 C.2     1  UNL1       -0.0356
      7 C           5.3395   -3.0705   -5.1165 C.2     1  UNL1       -0.0526
      8 C           6.0947   -2.8823   -6.3613 C.ar    1  UNL1       -0.0247
      9 C           7.2742   -2.1301   -6.4307 C.ar    1  UNL1       -0.0511
     10 C           7.9902   -2.0399   -7.6285 C.ar    1  UNL1       -0.0194
     11 C           7.5518   -2.7197   -8.7636 C.ar    1  UNL1        0.1210
     12 O           8.3664   -2.6266   -9.8614 O.3     1  UNL1       -0.4874
     13 C           8.2143   -3.6879  -10.8083 C.3     1  UNL1        0.1146
     14 C           9.4240   -3.8059  -11.7047 C.ar    1  UNL1       -0.0104
     15 C           9.8451   -5.0779  -12.1244 C.ar    1  UNL1       -0.0554
     16 C          10.9283   -5.2191  -12.9912 C.ar    1  UNL1       -0.0614
     17 C          11.5968   -4.0901  -13.4553 C.ar    1  UNL1       -0.0617
     18 C          11.1828   -2.8201  -13.0549 C.ar    1  UNL1       -0.0614
     19 C          10.0978   -2.6767  -12.1870 C.ar    1  UNL1       -0.0554
     20 C           6.3578   -3.4401   -8.7115 C.ar    1  UNL1       -0.0194
     21 C           5.6446   -3.5339   -7.5141 C.ar    1  UNL1       -0.0511
     22 N           3.8159   -3.5047   -2.7523 N.ar    1  UNL1       -0.2152
     23 C           3.1201   -3.6557   -1.6269 C.ar    1  UNL1        0.2141
     24 N           2.4429   -4.8447   -1.4509 N.pl3   1  UNL1       -0.3274
     25 N           3.0643   -2.7662   -0.6376 N.ar    1  UNL1       -0.2083
     26 H           1.6221   -1.3963    1.2227 H       1  UNL1        0.0344
     27 H           3.0492   -2.1307    2.0138 H       1  UNL1        0.0344
     28 H           2.4653   -0.5366    2.5234 H       1  UNL1        0.0344
     29 H           5.0038   -0.4195   -2.0833 H       1  UNL1        0.0665
     30 H           5.7361   -1.1864   -4.2531 H       1  UNL1        0.0639
     31 H           4.8226   -4.0236   -5.0174 H       1  UNL1        0.0624
     32 H           7.6680   -1.6257   -5.5524 H       1  UNL1        0.0625
     33 H           8.9107   -1.4626   -7.6646 H       1  UNL1        0.0654
     34 H           8.0926   -4.6435  -10.2815 H       1  UNL1        0.0748
     35 H           7.3355   -3.4959  -11.4354 H       1  UNL1        0.0748
     36 H           9.3295   -5.9702  -11.7756 H       1  UNL1        0.0621
     37 H          11.2460   -6.2100  -13.3041 H       1  UNL1        0.0618
     38 H          12.4410   -4.1984  -14.1321 H       1  UNL1        0.0618
     39 H          11.7035   -1.9395  -13.4200 H       1  UNL1        0.0618
     40 H           9.7816   -1.6808  -11.8872 H       1  UNL1        0.0621
     41 H           5.9579   -3.9490   -9.5822 H       1  UNL1        0.0654
     42 H           4.7309   -4.1243   -7.4923 H       1  UNL1        0.0625
     43 H           2.3248   -5.0318   -0.4658 H       1  UNL1        0.1452
     44 H           2.8691   -5.5681   -2.0131 H       1  UNL1        0.1452
@<TRIPOS>BOND
     1     1    26    1
     2     1    27    1
     3     1    28    1
     4     2     1    1
     5     3     2    1
     6     4     3   ar
     7     4    29    1
     8     5     4   ar
     9     6     5    1
    10     6    30    1
    11     7     6    2
    12     7    31    1
    13     8     7    1
    14     9     8   ar
    15     9    32    1
    16    10     9   ar
    17    10    33    1
    18    11    10   ar
    19    12    11    1
    20    13    12    1
    21    13    34    1
    22    13    35    1
    23    14    13    1
    24    15    14   ar
    25    15    36    1
    26    16    15   ar
    27    16    37    1
    28    17    16   ar
    29    17    38    1
    30    18    17   ar
    31    18    39    1
    32    19    18   ar
    33    19    14   ar
    34    19    40    1
    35    20    11   ar
    36    20    41    1
    37    21    20   ar
    38    21     8   ar
    39    21    42    1
    40    22     5   ar
    41    23    22   ar
    42    24    23    1
    43    24    43    1
    44    24    44    1
    45    25    23   ar
    46    25     3   ar
@<TRIPOS>MOLECULE
mol_361_akc_dddts96650
>346.sdf
 31 32 0 0 0
SMALL
GASTEIGER

@<TRIPOS>ATOM
      1 O           0.7397   -0.8375   -0.8508 O.co2   1  UNL1       -0.5760
      2 N           1.3759   -0.9600   -1.9088 N.pl3   1  UNL1        0.0816
      3 O           1.1014   -1.7300   -2.8360 O.2     1  UNL1        0.0415
      4 C           2.6033   -0.1962   -2.0186 C.ar    1  UNL1        0.2992
      5 C           2.6185    1.1961   -1.8964 C.ar    1  UNL1        0.1818
      6 C           3.8384    1.8724   -2.0392 C.ar    1  UNL1       -0.0286
      7 C           5.0204    1.1544   -2.2582 C.ar    1  UNL1       -0.0595
      8 C           4.9970   -0.2381   -2.3422 C.ar    1  UNL1       -0.0552
      9 C           3.7873   -0.9213   -2.2266 C.ar    1  UNL1        0.0176
     10 S           1.1179    2.1378   -1.7843 S.O2    1  UNL1        0.0652
     11 O           1.4736    3.5383   -1.8307 O.2     1  UNL1       -0.1528
     12 O           0.2170    1.5624   -2.7572 O.2     1  UNL1       -0.1528
     13 N           0.5082    1.8186   -0.2579 N.3     1  UNL1       -0.1839
     14 C           1.0814    2.5571    0.8764 C.3     1  UNL1        0.0596
     15 C           0.4425    2.1536    2.1910 C.ar    1  UNL1        0.0567
     16 N           1.0406    1.1531    2.8872 N.ar    1  UNL1       -0.2585
     17 C           0.4642    0.7793    4.0523 C.ar    1  UNL1        0.0279
     18 C          -0.6894    1.3502    4.5633 C.ar    1  UNL1       -0.0436
     19 C          -1.3008    2.3598    3.8304 C.ar    1  UNL1       -0.0586
     20 C          -0.7360    2.7633    2.6230 C.ar    1  UNL1       -0.0391
     21 H           3.8822    2.9606   -2.0179 H       1  UNL1        0.0639
     22 H           5.9631    1.6858   -2.3822 H       1  UNL1        0.0618
     23 H           5.9198   -0.7899   -2.5122 H       1  UNL1        0.0620
     24 H           3.7725   -2.0065   -2.3054 H       1  UNL1        0.0686
     25 H           0.3838    0.8133   -0.0695 H       1  UNL1        0.1484
     26 H           2.1572    2.3652    0.9422 H       1  UNL1        0.0506
     27 H           0.9360    3.6335    0.7333 H       1  UNL1        0.0506
     28 H           0.9717   -0.0204    4.5843 H       1  UNL1        0.0829
     29 H          -1.1046    1.0117    5.5061 H       1  UNL1        0.0633
     30 H          -2.2135    2.8245    4.1931 H       1  UNL1        0.0619
     31 H          -1.2116    3.5392    2.0304 H       1  UNL1        0.0636
@<TRIPOS>UNITY_ATOM_ATTR
1 1
charge -1
2 1
charge 1
@<TRIPOS>BOND
     1     2     1    1
     2     3     2    2
     3     4     2    1
     4     5     4   ar
     5     6     5   ar
     6     6    21    1
     7     7     6   ar
     8     7    22    1
     9     8     7   ar
    10     8    23    1
    11     9     8   ar
    12     9     4   ar
    13     9    24    1
    14    10     5    1
    15    11    10    2
    16    12    10    2
    17    13    10    1
    18    13    25    1
    19    14    13    1
    20    14    26    1
    21    14    27    1
    22    15    14    1
    23    16    15   ar
    24    17    16   ar
    25    17    28    1
    26    18    17   ar
    27    18    29    1
    28    19    18   ar
    29    19    30    1
    30    20    19   ar
    31    20    15   ar
    32    20    31    1
@<TRIPOS>MOLECULE
mol_362_akc_jbmcl201603082
>347.sdf
 55 58 0 0 0
SMALL
GASTEIGER

@<TRIPOS>ATOM
      1 C           0.7237   -0.2228    1.6486 C.3     1  UNL1       -0.0281
      2 C           2.2020   -0.5497    1.8698 C.3     1  UNL1        0.0946
      3 C           2.5284   -1.8833    1.1976 C.3     1  UNL1       -0.0281
      4 O           2.9638    0.5363    1.3100 O.3     1  UNL1       -0.4885
      5 C           4.3206    0.5727    1.5167 C.ar    1  UNL1        0.1353
      6 C           5.1339    1.0813    0.4864 C.ar    1  UNL1        0.0591
      7 C           6.5276    1.0415    0.6488 C.ar    1  UNL1       -0.0437
      8 C           7.1055    0.6035    1.8390 C.ar    1  UNL1       -0.0161
      9 C           6.3078    0.2406    2.9240 C.ar    1  UNL1        0.1220
     10 N           6.8205    0.0344    4.2283 N.pl3   1  UNL1       -0.2050
     11 C           7.9143    0.5507    4.8591 C.2     1  UNL1        0.2565
     12 N           8.5934    1.4307    4.2870 N.2     1  UNL1       -0.4083
     13 C           8.3449    0.2113    6.2608 C.ar    1  UNL1        0.1463
     14 N           9.4076    0.9938    6.6204 N.ar    1  UNL1       -0.2477
     15 C           9.8879    0.7893    7.8682 C.ar    1  UNL1        0.0285
     16 C           9.3527   -0.1365    8.7509 C.ar    1  UNL1       -0.0435
     17 C           8.2596   -0.9007    8.3423 C.ar    1  UNL1       -0.0581
     18 C           7.7342   -0.7300    7.0648 C.ar    1  UNL1       -0.0286
     19 C           4.9129    0.1933    2.7329 C.ar    1  UNL1        0.0254
     20 C           4.6025    1.6893   -0.7288 C.ar    1  UNL1        0.1392
     21 C           3.5169    2.4886   -1.0167 C.ar    1  UNL1       -0.0151
     22 C           3.5878    2.7819   -2.4006 C.ar    1  UNL1       -0.0153
     23 C           4.7045    2.1334   -2.8917 C.ar    1  UNL1        0.1357
     24 O           5.3411    1.4962   -1.8631 O.2     1  UNL1       -0.4547
     25 C           5.2762    1.9572   -4.2254 C.ar    1  UNL1        0.0173
     26 C           4.5905    2.4346   -5.3528 C.ar    1  UNL1       -0.0511
     27 C           5.0705    2.1944   -6.6430 C.ar    1  UNL1       -0.0611
     28 C           6.2521    1.4822   -6.8256 C.ar    1  UNL1       -0.0617
     29 C           6.9630    1.0254   -5.7186 C.ar    1  UNL1       -0.0611
     30 C           6.4800    1.2641   -4.4274 C.ar    1  UNL1       -0.0511
     31 H           0.0794   -1.0622    1.9324 H       1  UNL1        0.0265
     32 H           0.4333    0.6451    2.2501 H       1  UNL1        0.0265
     33 H           0.5253    0.0343    0.6023 H       1  UNL1        0.0265
     34 H           2.3537   -0.6239    2.9513 H       1  UNL1        0.0727
     35 H           2.4744   -1.8012    0.1070 H       1  UNL1        0.0265
     36 H           3.5418   -2.2122    1.4471 H       1  UNL1        0.0265
     37 H           1.8364   -2.6684    1.5234 H       1  UNL1        0.0265
     38 H           7.1755    1.3802   -0.1600 H       1  UNL1        0.0627
     39 H           8.1877    0.5548    1.8779 H       1  UNL1        0.0658
     40 H           6.1812   -0.5302    4.7863 H       1  UNL1        0.2983
     41 H           9.0844    1.9423    5.0280 H       1  UNL1        0.2551
     42 H          10.7394    1.4016    8.1577 H       1  UNL1        0.0830
     43 H           9.7778   -0.2623    9.7433 H       1  UNL1        0.0633
     44 H           7.8225   -1.6280    9.0236 H       1  UNL1        0.0619
     45 H           6.8874   -1.3207    6.7423 H       1  UNL1        0.0641
     46 H           4.2780   -0.0959    3.5648 H       1  UNL1        0.0695
     47 H           2.7675    2.8247   -0.3139 H       1  UNL1        0.0656
     48 H           2.8887    3.3733   -2.9746 H       1  UNL1        0.0656
     49 H           3.6569    2.9807   -5.2449 H       1  UNL1        0.0625
     50 H           4.5110    2.5515   -7.5040 H       1  UNL1        0.0618
     51 H           6.6145    1.2791   -7.8302 H       1  UNL1        0.0618
     52 H           7.8860    0.4689   -5.8606 H       1  UNL1        0.0618
     53 H           7.0457    0.8830   -3.5807 H       1  UNL1        0.0625
     54 H           8.0390    1.9952    3.6709 H       1  UNL1        0.2551
     55 H           9.3404    0.9732    3.7953 H       1  UNL1        0.2551
@<TRIPOS>BOND
     1     1    31    1
     2     1    32    1
     3     1    33    1
     4     2     1    1
     5     2    34    1
     6     3     2    1
     7     3    35    1
     8     3    36    1
     9     3    37    1
    10     4     2    1
    11     5     4    1
    12     6     5   ar
    13     7     6   ar
    14     7    38    1
    15     8     7   ar
    16     8    39    1
    17     9     8   ar
    18    10     9    1
    19    10    40    1
    20    11    10    1
    21    12    11    2
    22    12    41    1
    23    12    54    1
    24    13    11    1
    25    14    13   ar
    26    15    14   ar
    27    15    42    1
    28    16    15   ar
    29    16    43    1
    30    17    16   ar
    31    17    44    1
    32    18    17   ar
    33    18    13   ar
    34    18    45    1
    35    19     9   ar
    36    19     5   ar
    37    19    46    1
    38    20     6    1
    39    21    20   ar
    40    21    47    1
    41    22    21   ar
    42    22    48    1
    43    23    22   ar
    44    24    23   ar
    45    24    20   ar
    46    25    23    1
    47    26    25   ar
    48    26    49    1
    49    27    26   ar
    50    27    50    1
    51    28    27   ar
    52    28    51    1
    53    29    28   ar
    54    29    52    1
    55    30    29   ar
    56    30    25   ar
    57    30    53    1
    58    12    55    1
@<TRIPOS>MOLECULE
mol_363_akc_s11030_015_9652_9
>348.sdf
 52 56 0 0 0
SMALL
GASTEIGER

@<TRIPOS>ATOM
      1 N          10.2288   -1.7009   -0.0641 N.pl3   1  UNL1       -0.3289
      2 C           8.9493   -1.2633    0.0486 C.ar    1  UNL1        0.1950
      3 N           7.9608   -2.1164    0.0058 N.ar    1  UNL1       -0.1963
      4 C           6.7426   -1.5302    0.1232 C.ar    1  UNL1        0.1712
      5 C           6.4550   -0.1905    0.2722 C.ar    1  UNL1        0.1721
      6 N           5.1052    0.0337    0.3432 N.ar    1  UNL1       -0.2286
      7 C           4.5720   -1.1650    0.2326 C.ar    1  UNL1        0.1005
      8 N           5.5229   -2.1498    0.0973 N.ar    1  UNL1       -0.2854
      9 C           5.2297   -3.5579   -0.0795 C.3     1  UNL1        0.1666
     10 O           5.7766   -4.3090    1.0312 O.3     1  UNL1       -0.3461
     11 C           6.2756   -5.5705    0.5179 C.3     1  UNL1        0.1091
     12 C           7.7822   -5.6285    0.7617 C.3     1  UNL1        0.0720
     13 N           8.3549   -6.9059    0.4039 N.ar    1  UNL1       -0.2488
     14 C           8.5249   -8.0155    1.1772 C.ar    1  UNL1        0.0521
     15 C           9.2029   -8.8931    0.3544 C.ar    1  UNL1        0.1199
     16 C           9.8100  -10.2255    0.6348 C.3     1  UNL1        0.1347
     17 O           8.8958  -11.3028    0.4062 O.3     1  UNL1       -0.4843
     18 C           9.4053  -12.5683    0.5873 C.ar    1  UNL1        0.1393
     19 C           8.5229  -13.5751    1.0096 C.ar    1  UNL1        0.0825
     20 CL          6.8622  -13.2335    1.3479 Cl      1  UNL1       -0.0798
     21 C           8.9705  -14.8902    1.1853 C.ar    1  UNL1       -0.0398
     22 C          10.3011  -15.2169    0.9289 C.ar    1  UNL1       -0.0602
     23 C          11.1802  -14.2311    0.4906 C.ar    1  UNL1       -0.0582
     24 C          10.7349  -12.9165    0.3148 C.ar    1  UNL1       -0.0185
     25 N           9.3689   -8.3050   -0.8759 N.ar    1  UNL1       -0.1310
     26 N           8.8499   -7.0882   -0.8302 N.ar    1  UNL1       -0.0653
     27 C           5.8684   -5.6388   -0.9596 C.3     1  UNL1        0.1131
     28 O           4.5618   -6.2206   -1.0874 O.3     1  UNL1       -0.3864
     29 C           5.7946   -4.1717   -1.3587 C.3     1  UNL1        0.1285
     30 O           4.9819   -3.9313   -2.5048 O.3     1  UNL1       -0.3847
     31 C           7.5612    0.7379    0.3210 C.ar    1  UNL1        0.2803
     32 O           7.4754    1.9572    0.4547 O.2     1  UNL1       -0.2654
     33 N           8.7859    0.1026    0.1954 N.ar    1  UNL1       -0.2934
     34 H          10.2864   -2.6493   -0.4210 H       1  UNL1        0.1451
     35 H          10.8919   -1.0766   -0.5039 H       1  UNL1        0.1451
     36 H           3.5100   -1.3792    0.2375 H       1  UNL1        0.1030
     37 H           4.1385   -3.6701   -0.0423 H       1  UNL1        0.0866
     38 H           5.7806   -6.3609    1.0945 H       1  UNL1        0.0642
     39 H           8.3132   -4.8507    0.2018 H       1  UNL1        0.0536
     40 H           8.0057   -5.4496    1.8202 H       1  UNL1        0.0536
     41 H           8.2082   -8.0731    2.2084 H       1  UNL1        0.0846
     42 H          10.6806  -10.3090   -0.0240 H       1  UNL1        0.0764
     43 H          10.1518  -10.2579    1.6771 H       1  UNL1        0.0764
     44 H           8.2850  -15.6657    1.5182 H       1  UNL1        0.0633
     45 H          10.6494  -16.2387    1.0598 H       1  UNL1        0.0618
     46 H          12.2150  -14.4854    0.2708 H       1  UNL1        0.0619
     47 H          11.4531  -12.1990   -0.0669 H       1  UNL1        0.0654
     48 H           6.5294   -6.2136   -1.6093 H       1  UNL1        0.0647
     49 H           4.6387   -7.1708   -0.8798 H       1  UNL1        0.2100
     50 H           6.8019   -3.8103   -1.5836 H       1  UNL1        0.0665
     51 H           4.8522   -4.7872   -2.9537 H       1  UNL1        0.2101
     52 H           9.5864    0.7055    0.2547 H       1  UNL1        0.1716
@<TRIPOS>BOND
     1     1    34    1
     2     1    35    1
     3     2     1    1
     4     3     2   ar
     5     4     3   ar
     6     5     4   ar
     7     6     5   ar
     8     7     6   ar
     9     7    36    1
    10     8     7   ar
    11     8     4   ar
    12     9     8    1
    13     9    37    1
    14    10     9    1
    15    11    10    1
    16    11    38    1
    17    12    11    1
    18    12    39    1
    19    12    40    1
    20    13    12    1
    21    14    13   ar
    22    14    41    1
    23    15    14   ar
    24    16    15    1
    25    16    42    1
    26    16    43    1
    27    17    16    1
    28    18    17    1
    29    19    18   ar
    30    20    19    1
    31    21    19   ar
    32    21    44    1
    33    22    21   ar
    34    22    45    1
    35    23    22   ar
    36    23    46    1
    37    24    23   ar
    38    24    18   ar
    39    24    47    1
    40    25    15   ar
    41    26    25   ar
    42    26    13   ar
    43    27    11    1
    44    27    48    1
    45    28    27    1
    46    28    49    1
    47    29    27    1
    48    29     9    1
    49    29    50    1
    50    30    29    1
    51    30    51    1
    52    31     5   ar
    53    32    31    2
    54    33    31   ar
    55    33     2   ar
    56    33    52    1
@<TRIPOS>MOLECULE
mol_364_akc_0103_505320150330
>349.sdf
 30 31 0 0 0
SMALL
GASTEIGER

@<TRIPOS>ATOM
      1 C           0.9579   -0.0609    0.0809 C.3     1  UNL1       -0.0188
      2 C           2.4748    0.0048    0.0710 C.2     1  UNL1        0.0815
      3 N           3.1566    0.8720    0.7686 N.2     1  UNL1       -0.1828
      4 N           2.4847    1.7856    1.5266 N.am    1  UNL1       -0.2027
      5 C           3.1866    2.7198    2.2749 C.2     1  UNL1        0.2634
      6 O           4.4082    2.8207    2.3277 O.2     1  UNL1       -0.2684
      7 C           2.3446    3.6870    3.0354 C.ar    1  UNL1        0.0412
      8 C           1.0732    3.3556    3.5090 C.ar    1  UNL1       -0.0314
      9 C           0.3640    4.3257    4.1957 C.ar    1  UNL1        0.0283
     10 N           0.8328    5.5673    4.4370 N.ar    1  UNL1       -0.2632
     11 C           2.0756    5.8529    3.9914 C.ar    1  UNL1        0.0283
     12 C           2.8647    4.9557    3.2965 C.ar    1  UNL1       -0.0314
     13 C           3.2071   -0.9782   -0.7939 C.ar    1  UNL1        0.0862
     14 N           2.4417   -1.8440   -1.5049 N.ar    1  UNL1       -0.2537
     15 C           3.0873   -2.7268   -2.2970 C.ar    1  UNL1        0.0283
     16 C           4.4649   -2.7881   -2.4195 C.ar    1  UNL1       -0.0436
     17 C           5.2313   -1.8915   -1.6831 C.ar    1  UNL1       -0.0583
     18 C           4.5970   -0.9693   -0.8535 C.ar    1  UNL1       -0.0345
     19 H           0.6048   -0.1566    1.1124 H       1  UNL1        0.0294
     20 H           0.5569    0.8580   -0.3571 H       1  UNL1        0.0294
     21 H           0.5541   -0.9053   -0.4793 H       1  UNL1        0.0294
     22 H           1.4815    1.8616    1.4278 H       1  UNL1        0.1776
     23 H           0.6422    2.3700    3.3845 H       1  UNL1        0.0640
     24 H          -0.6290    4.1233    4.5883 H       1  UNL1        0.0830
     25 H           2.4297    6.8553    4.2162 H       1  UNL1        0.0830
     26 H           3.8587    5.2376    2.9635 H       1  UNL1        0.0640
     27 H           2.4459   -3.4070   -2.8509 H       1  UNL1        0.0830
     28 H           4.9299   -3.5171   -3.0741 H       1  UNL1        0.0633
     29 H           6.3155   -1.9076   -1.7540 H       1  UNL1        0.0619
     30 H           5.1793   -0.2605   -0.2721 H       1  UNL1        0.0639
@<TRIPOS>BOND
     1     1    19    1
     2     1    20    1
     3     1    21    1
     4     2     1    1
     5     3     2    2
     6     4     3    1
     7     4    22    1
     8     5     4   am
     9     6     5    2
    10     7     5    1
    11     8     7   ar
    12     8    23    1
    13     9     8   ar
    14     9    24    1
    15    10     9   ar
    16    11    10   ar
    17    11    25    1
    18    12    11   ar
    19    12     7   ar
    20    12    26    1
    21    13     2    1
    22    14    13   ar
    23    15    14   ar
    24    15    27    1
    25    16    15   ar
    26    16    28    1
    27    17    16   ar
    28    17    29    1
    29    18    17   ar
    30    18    13   ar
    31    18    30    1
@<TRIPOS>MOLECULE
mol_365_akc_jexppara201601007
>350.sdf
 28 29 0 0 0
SMALL
GASTEIGER

@<TRIPOS>ATOM
      1 O           1.0659   -0.0550    0.0337 O.2     1  UNL1       -0.2685
      2 C           2.2860    0.0502    0.1055 C.2     1  UNL1        0.2633
      3 N           3.0080    0.1739    1.2863 N.am    1  UNL1       -0.2030
      4 N           2.3251    0.3021    2.4640 N.2     1  UNL1       -0.1874
      5 C           3.0375    0.4758    3.5256 C.2     1  UNL1        0.0559
      6 C           2.3508    0.6710    4.7800 C.ar    1  UNL1        0.0346
      7 C           2.9662    0.8374    6.0060 C.ar    1  UNL1        0.1033
      8 O           2.0443    1.0044    6.9940 O.2     1  UNL1       -0.4417
      9 C           0.8268    0.9453    6.3895 C.ar    1  UNL1        0.2803
     10 C           0.9480    0.7466    5.0353 C.ar    1  UNL1        0.0166
     11 N          -0.3158    1.0927    7.2349 N.pl3   1  UNL1        0.0926
     12 O          -1.4215    1.0384    6.6806 O.2     1  UNL1       -0.1231
     13 O          -0.1202    1.2642    8.4456 O.2     1  UNL1       -0.1231
     14 C           3.0854    0.1108   -1.1505 C.ar    1  UNL1        0.0384
     15 C           2.4780    0.6636   -2.2865 C.ar    1  UNL1       -0.0496
     16 C           3.1851    0.7648   -3.4851 C.ar    1  UNL1       -0.0610
     17 C           4.4988    0.3054   -3.5581 C.ar    1  UNL1       -0.0617
     18 C           5.1039   -0.2639   -2.4368 C.ar    1  UNL1       -0.0610
     19 C           4.4001   -0.3662   -1.2331 C.ar    1  UNL1       -0.0496
     20 H           4.0014    0.3687    1.2657 H       1  UNL1        0.1776
     21 H           4.1412    0.4887    3.5218 H       1  UNL1        0.0852
     22 H           3.9976    0.8612    6.3326 H       1  UNL1        0.1037
     23 H           0.1432    0.6666    4.3153 H       1  UNL1        0.0680
     24 H           1.4506    1.0209   -2.2364 H       1  UNL1        0.0625
     25 H           2.7079    1.1984   -4.3608 H       1  UNL1        0.0618
     26 H           5.0474    0.3804   -4.4937 H       1  UNL1        0.0618
     27 H           6.1228   -0.6379   -2.5067 H       1  UNL1        0.0618
     28 H           4.8814   -0.8476   -0.3869 H       1  UNL1        0.0625
@<TRIPOS>BOND
     1     2     1    2
     2     3     2   am
     3     3    20    1
     4     4     3    1
     5     5     4    2
     6     5    21    1
     7     6     5    1
     8     7     6   ar
     9     7    22    1
    10     8     7   ar
    11     9     8   ar
    12    10     9   ar
    13    10     6   ar
    14    10    23    1
    15    11     9    1
    16    12    11    2
    17    13    11    2
    18    14     2    1
    19    15    14   ar
    20    15    24    1
    21    16    15   ar
    22    16    25    1
    23    17    16   ar
    24    17    26    1
    25    18    17   ar
    26    18    27    1
    27    19    18   ar
    28    19    14   ar
    29    19    28    1
@<TRIPOS>MOLECULE
mol_368_akc_acsjnatprod5b00990
>353.sdf
 58 60 0 0 0
SMALL
GASTEIGER

@<TRIPOS>ATOM
      1 H          -1.0314    2.6337   -0.8884 H       1  UNL1        0.0315
      2 C          -0.6461    1.9556   -0.1054 C.3     1  UNL1       -0.0245
      3 C           0.3848    1.0936   -0.8756 C.3     1  UNL1       -0.0449
      4 C           1.8575    1.4399   -0.6847 C.3     1  UNL1       -0.0271
      5 C           2.1135    2.8799   -0.3558 C.ar    1  UNL1       -0.0434
      6 C           1.1548    3.6592    0.3185 C.ar    1  UNL1       -0.0380
      7 C           1.3895    5.0361    0.4258 C.ar    1  UNL1       -0.0575
      8 C           2.5637    5.6064   -0.0685 C.ar    1  UNL1       -0.0580
      9 C           3.5799    4.8064   -0.5974 C.ar    1  UNL1       -0.0445
     10 C           3.3453    3.4368   -0.7237 C.ar    1  UNL1       -0.0549
     11 C           4.8659    5.3890   -1.1454 C.3     1  UNL1       -0.0215
     12 C           5.4145    6.5510   -0.3149 C.3     1  UNL1       -0.0586
     13 C           4.6337    5.7937   -2.6024 C.3     1  UNL1       -0.0586
     14 C          -0.0598    2.9509    0.9471 C.3     1  UNL1       -0.0034
     15 C           0.4678    2.2593    2.2358 C.3     1  UNL1       -0.0553
     16 C          -1.1954    3.9585    1.3337 C.3     1  UNL1       -0.0433
     17 C          -2.6168    3.3979    1.3432 C.3     1  UNL1       -0.0517
     18 C          -2.6553    1.8949    1.5265 C.3     1  UNL1       -0.0459
     19 C          -1.9076    1.1395    0.3916 C.3     1  UNL1       -0.0129
     20 C          -1.5440   -0.2746    0.9207 C.3     1  UNL1       -0.0579
     21 C          -2.8626    0.9745   -0.8320 C.3     1  UNL1        0.0176
     22 N          -4.0207    0.1577   -0.5310 N.am    1  UNL1       -0.3113
     23 C          -4.9519   -0.1240   -1.4913 C.2     1  UNL1        0.2364
     24 O          -5.0529    0.4159   -2.5837 O.2     1  UNL1       -0.2709
     25 C          -5.7856   -1.2613   -1.0699 C.2     1  UNL1       -0.0070
     26 C          -5.6231   -2.4258   -1.7338 C.2     1  UNL1       -0.0938
     27 H           0.2798    0.0227   -0.6874 H       1  UNL1        0.0271
     28 H           0.1471    1.1953   -1.9450 H       1  UNL1        0.0271
     29 H           2.3071    0.8016    0.0834 H       1  UNL1        0.0313
     30 H           2.3650    1.2000   -1.6304 H       1  UNL1        0.0313
     31 H           0.6658    5.7073    0.8779 H       1  UNL1        0.0621
     32 H           2.6678    6.6867   -0.0320 H       1  UNL1        0.0620
     33 H           4.1149    2.7951   -1.1503 H       1  UNL1        0.0623
     34 H           5.6390    4.6078   -1.1242 H       1  UNL1        0.0343
     35 H           6.4118    6.8331   -0.6685 H       1  UNL1        0.0235
     36 H           5.5024    6.2702    0.7413 H       1  UNL1        0.0235
     37 H           4.7798    7.4402   -0.3783 H       1  UNL1        0.0235
     38 H           4.5704    4.9015   -3.2372 H       1  UNL1        0.0235
     39 H           3.6937    6.3442   -2.7271 H       1  UNL1        0.0235
     40 H           5.4475    6.4179   -2.9818 H       1  UNL1        0.0235
     41 H           0.4412    2.9426    3.0932 H       1  UNL1        0.0238
     42 H           1.5076    1.9240    2.1507 H       1  UNL1        0.0238
     43 H          -0.1114    1.3859    2.5286 H       1  UNL1        0.0238
     44 H          -1.2285    4.7981    0.6291 H       1  UNL1        0.0274
     45 H          -0.9832    4.4093    2.3126 H       1  UNL1        0.0274
     46 H          -3.1974    3.8879    2.1342 H       1  UNL1        0.0266
     47 H          -3.1131    3.6636    0.4015 H       1  UNL1        0.0266
     48 H          -3.7018    1.5719    1.5888 H       1  UNL1        0.0271
     49 H          -2.2298    1.6527    2.5068 H       1  UNL1        0.0271
     50 H          -1.5275   -1.0176    0.1132 H       1  UNL1        0.0236
     51 H          -2.2716   -0.6267    1.6624 H       1  UNL1        0.0236
     52 H          -0.5628   -0.3065    1.4019 H       1  UNL1        0.0236
     53 H          -2.3362    0.4945   -1.6668 H       1  UNL1        0.0467
     54 H          -3.2216    1.9417   -1.1996 H       1  UNL1        0.0467
     55 H          -3.9518   -0.4953    0.2347 H       1  UNL1        0.1490
     56 H          -6.4004   -1.1686   -0.1969 H       1  UNL1        0.0663
     57 H          -4.9609   -2.4925   -2.5916 H       1  UNL1        0.0536
     58 H          -6.1431   -3.3185   -1.4268 H       1  UNL1        0.0536
@<TRIPOS>BOND
     1     3     2    1
     2     4     3    1
     3     5     4    1
     4     6     5   ar
     5     7     6   ar
     6     8     7   ar
     7     9     8   ar
     8    10     9   ar
     9    10     5   ar
    10    11    34    1
    11    12    11    1
    12    12    35    1
    13    12    36    1
    14    12    37    1
    15    13    11    1
    16    13    38    1
    17    13    39    1
    18    13    40    1
    19    14     6    1
    20    14     2    1
    21    15    41    1
    22    15    42    1
    23    15    43    1
    24    16    14    1
    25    17    16    1
    26    18    17    1
    27    19    18    1
    28    19     2    1
    29    20    50    1
    30    20    51    1
    31    20    52    1
    32    21    53    1
    33    21    54    1
    34    22    21    1
    35    22    55    1
    36    23    22   am
    37    24    23    2
    38    25    23    1
    39    25    56    1
    40    26    25    2
    41    26    57    1
    42    26    58    1
    43     2     1    1
    44     3    27    1
    45     3    28    1
    46     4    29    1
    47     4    30    1
    48     7    31    1
    49     8    32    1
    50    11     9    1
    51    10    33    1
    52    14    15    1
    53    16    44    1
    54    16    45    1
    55    17    46    1
    56    17    47    1
    57    18    48    1
    58    18    49    1
    59    19    21    1
    60    19    20    1
@<TRIPOS>MOLECULE
mol_369_akc_jbmcl201601040
>354.sdf
 43 43 0 0 0
SMALL
GASTEIGER

@<TRIPOS>ATOM
      1 C           0.9121   -0.0857    0.1245 C.3     1  UNL1       -0.0653
      2 C           2.4308   -0.0776    0.1058 C.3     1  UNL1       -0.0559
      3 C           2.9631    0.9977   -0.8384 C.3     1  UNL1       -0.0533
      4 C           4.4891    1.0060   -0.8575 C.3     1  UNL1       -0.0531
      5 C           5.0195    2.0808   -1.8038 C.3     1  UNL1       -0.0529
      6 C           6.5446    2.0789   -1.8137 C.3     1  UNL1       -0.0483
      7 C           7.0967    3.1473   -2.7538 C.3     1  UNL1       -0.0126
      8 C           8.6155    3.1176   -2.7376 C.3     1  UNL1       -0.0334
      9 N           9.1303    4.1657   -3.6561 N.4     1  UNL1        0.2303
     10 C          10.6164    4.2222   -3.7191 C.3     1  UNL1       -0.0077
     11 C          11.0784    5.2868   -4.6674 C.ar    1  UNL1       -0.0027
     12 C          11.2621    6.6068   -4.2243 C.ar    1  UNL1       -0.0501
     13 C          11.7205    7.5902   -5.1035 C.ar    1  UNL1       -0.0197
     14 C          11.9815    7.2545   -6.4271 C.ar    1  UNL1        0.1169
     15 O          12.4540    8.1716   -7.3154 O.3     1  UNL1       -0.5068
     16 C          11.7708    5.9627   -6.8893 C.ar    1  UNL1       -0.0197
     17 C          11.3127    4.9781   -6.0159 C.ar    1  UNL1       -0.0501
     18 H           0.5442   -0.8608    0.8041 H       1  UNL1        0.0230
     19 H           0.5205    0.8788    0.4632 H       1  UNL1        0.0230
     20 H           0.5104   -0.2882   -0.8735 H       1  UNL1        0.0230
     21 H           2.8052    0.0986    1.1210 H       1  UNL1        0.0263
     22 H           2.7948   -1.0630   -0.2080 H       1  UNL1        0.0263
     23 H           2.5838    0.8194   -1.8519 H       1  UNL1        0.0265
     24 H           2.5943    1.9813   -0.5232 H       1  UNL1        0.0265
     25 H           4.8700    1.1859    0.1550 H       1  UNL1        0.0265
     26 H           4.8598    0.0228   -1.1723 H       1  UNL1        0.0265
     27 H           4.6423    1.9013   -2.8177 H       1  UNL1        0.0265
     28 H           4.6523    3.0653   -1.4900 H       1  UNL1        0.0265
     29 H           6.9188    2.2552   -0.7976 H       1  UNL1        0.0267
     30 H           6.9089    1.0924   -2.1248 H       1  UNL1        0.0267
     31 H           6.7275    2.9721   -3.7716 H       1  UNL1        0.0317
     32 H           6.7362    4.1359   -2.4443 H       1  UNL1        0.0317
     33 H           9.0092    3.3331   -1.7391 H       1  UNL1        0.0814
     34 H           9.0000    2.1539   -3.0884 H       1  UNL1        0.0814
     35 H           8.7737    4.0126   -4.6100 H       1  UNL1        0.2017
     36 H           8.7806    5.0914   -3.3788 H       1  UNL1        0.2017
     37 H          10.9847    4.4135   -2.7052 H       1  UNL1        0.0866
     38 H          10.9718    3.2342   -4.0348 H       1  UNL1        0.0866
     39 H          11.0777    6.8842   -3.1880 H       1  UNL1        0.0623
     40 H          11.8796    8.6025   -4.7420 H       1  UNL1        0.0654
     41 H          12.6141    9.0157   -6.8627 H       1  UNL1        0.2921
     42 H          11.9808    5.7224   -7.9303 H       1  UNL1        0.0654
     43 H          11.1697    3.9700   -6.4022 H       1  UNL1        0.0623
@<TRIPOS>UNITY_ATOM_ATTR
9 1
charge 1
@<TRIPOS>BOND
     1     1    18    1
     2     1    19    1
     3     1    20    1
     4     2     1    1
     5     2    21    1
     6     2    22    1
     7     3     2    1
     8     3    23    1
     9     3    24    1
    10     4     3    1
    11     4    25    1
    12     4    26    1
    13     5     4    1
    14     5    27    1
    15     5    28    1
    16     6     5    1
    17     6    29    1
    18     6    30    1
    19     7     6    1
    20     7    31    1
    21     7    32    1
    22     8     7    1
    23     8    33    1
    24     8    34    1
    25     9     8    1
    26     9    35    1
    27     9    36    1
    28    10     9    1
    29    10    37    1
    30    10    38    1
    31    11    10    1
    32    12    11   ar
    33    12    39    1
    34    13    12   ar
    35    13    40    1
    36    14    13   ar
    37    15    14    1
    38    15    41    1
    39    16    14   ar
    40    16    42    1
    41    17    16   ar
    42    17    11   ar
    43    17    43    1
@<TRIPOS>MOLECULE
mol_36_akc_c5ob00280j
>36.sdf
 46 51 0 0 0
SMALL
GASTEIGER

@<TRIPOS>ATOM
      1 C           1.3567   -0.0358   -0.1361 C.ar    1  UNL1       -0.0617
      2 C           0.5523   -1.1008    0.2511 C.ar    1  UNL1       -0.0611
      3 C          -0.8368   -0.9827    0.1801 C.ar    1  UNL1       -0.0524
      4 C          -1.4426    0.2114   -0.2368 C.ar    1  UNL1        0.0043
      5 C          -0.6205    1.2650   -0.6579 C.ar    1  UNL1       -0.0524
      6 C           0.7730    1.1402   -0.6072 C.ar    1  UNL1       -0.0611
      7 C          -2.8856    0.3789   -0.2080 C.ar    1  UNL1        0.1203
      8 C          -3.7488   -0.1212    0.7480 C.ar    1  UNL1        0.0970
      9 C          -3.6514   -0.9004    1.9207 C.ar    1  UNL1       -0.0332
     10 C          -4.7589   -1.2183    2.6031 C.ar    1  UNL1       -0.0469
     11 C          -6.0801   -0.7020    2.2043 C.ar    1  UNL1        0.0454
     12 C          -6.2138    0.0263    1.0190 C.ar    1  UNL1        0.1678
     13 N          -7.3940    0.4651    0.5160 N.ar    1  UNL1       -0.2062
     14 C          -8.4906    0.1608    1.2354 C.ar    1  UNL1        0.1810
     15 N          -8.4491   -0.4848    2.4202 N.ar    1  UNL1       -0.2252
     16 C          -7.2584   -0.8954    2.9147 C.ar    1  UNL1        0.0855
     17 C          -7.3650   -1.5533    4.2320 C.ar    1  UNL1        0.0192
     18 C          -8.4229   -2.4238    4.5319 C.ar    1  UNL1       -0.0497
     19 C          -8.4892   -3.0660    5.7683 C.ar    1  UNL1       -0.0430
     20 C          -7.4858   -2.8233    6.6885 C.ar    1  UNL1        0.0276
     21 N          -6.4673   -1.9686    6.4696 N.ar    1  UNL1       -0.2626
     22 C          -6.4538   -1.3390    5.2686 C.ar    1  UNL1        0.0367
     23 C          -9.8307    0.5118    0.6933 C.ar    1  UNL1        0.1079
     24 C          -9.9946    1.2043   -0.5088 C.ar    1  UNL1       -0.0326
     25 C         -11.2811    1.4772   -0.9746 C.ar    1  UNL1       -0.0582
     26 C         -12.3804    1.0590   -0.2378 C.ar    1  UNL1       -0.0436
     27 C         -12.1479    0.3808    0.9434 C.ar    1  UNL1        0.0284
     28 N         -10.9153    0.1019    1.4169 N.ar    1  UNL1       -0.2518
     29 N          -4.9983    0.3081    0.3358 N.ar    1  UNL1       -0.1935
     30 N          -4.8943    1.0480   -0.7886 N.ar    1  UNL1       -0.0582
     31 N          -3.6063    1.1133   -1.1190 N.ar    1  UNL1       -0.1285
     32 H           2.4395   -0.1231   -0.0810 H       1  UNL1        0.0618
     33 H           1.0019   -2.0239    0.6072 H       1  UNL1        0.0618
     34 H          -1.4370   -1.8452    0.4574 H       1  UNL1        0.0624
     35 H          -1.0570    2.1974   -1.0136 H       1  UNL1        0.0624
     36 H           1.4029    1.9676   -0.9263 H       1  UNL1        0.0618
     37 H          -2.6867   -1.2679    2.2645 H       1  UNL1        0.0640
     38 H          -4.6703   -1.8827    3.4560 H       1  UNL1        0.0626
     39 H          -9.2095   -2.5990    3.7988 H       1  UNL1        0.0625
     40 H          -9.3071   -3.7377    6.0036 H       1  UNL1        0.0633
     41 H          -7.4802   -3.3146    7.6569 H       1  UNL1        0.0829
     42 H          -5.6406   -0.6235    5.1702 H       1  UNL1        0.0836
     43 H          -9.1317    1.5264   -1.0850 H       1  UNL1        0.0640
     44 H         -11.4205    2.0150   -1.9078 H       1  UNL1        0.0619
     45 H         -13.3932    1.2554   -0.5731 H       1  UNL1        0.0633
     46 H         -12.9702    0.0302    1.5627 H       1  UNL1        0.0830
@<TRIPOS>BOND
     1     1    32    1
     2     2     1   ar
     3     2    33    1
     4     3     2   ar
     5     3    34    1
     6     4     3   ar
     7     5     4   ar
     8     5    35    1
     9     6     5   ar
    10     6     1   ar
    11     6    36    1
    12     7     4    1
    13     8     7   ar
    14     9     8   ar
    15     9    37    1
    16    10     9   ar
    17    10    38    1
    18    11    10   ar
    19    12    11   ar
    20    13    12   ar
    21    14    13   ar
    22    15    14   ar
    23    16    15   ar
    24    16    11   ar
    25    17    16    1
    26    18    17   ar
    27    18    39    1
    28    19    18   ar
    29    19    40    1
    30    20    19   ar
    31    20    41    1
    32    21    20   ar
    33    22    21   ar
    34    22    17   ar
    35    22    42    1
    36    23    14    1
    37    24    23   ar
    38    24    43    1
    39    25    24   ar
    40    25    44    1
    41    26    25   ar
    42    26    45    1
    43    27    26   ar
    44    27    46    1
    45    28    27   ar
    46    28    23   ar
    47    29    12   ar
    48    29     8   ar
    49    30    29   ar
    50    31    30   ar
    51    31     7   ar
@<TRIPOS>MOLECULE
mol_370_akc_journalpntd0004442
>355.sdf
 30 32 0 0 0
SMALL
GASTEIGER

@<TRIPOS>ATOM
      1 O           2.0597   -0.2447    0.8543 O.3     1  UNL1       -0.5068
      2 C           0.7411   -0.1672    0.5188 C.ar    1  UNL1        0.1169
      3 C          -0.0666    0.8619    0.9919 C.ar    1  UNL1       -0.0195
      4 C          -1.4189    0.8870    0.6425 C.ar    1  UNL1       -0.0476
      5 C          -1.9594   -0.1168   -0.1737 C.ar    1  UNL1        0.0176
      6 C          -1.1292   -1.1371   -0.6529 C.ar    1  UNL1       -0.0476
      7 C           0.2235   -1.1589   -0.3071 C.ar    1  UNL1       -0.0195
      8 C          -3.3885   -0.1071   -0.4948 C.ar    1  UNL1        0.1392
      9 C          -3.8687    0.6591   -1.4831 C.ar    1  UNL1        0.0288
     10 C          -5.3199    0.6703   -1.7171 C.ar    1  UNL1        0.1966
     11 O          -5.8235    1.3591   -2.5990 O.2     1  UNL1       -0.2869
     12 C          -6.1467   -0.1702   -0.8414 C.ar    1  UNL1        0.1055
     13 C          -7.5390   -0.2137   -0.9630 C.ar    1  UNL1        0.1347
     14 O          -8.2296    0.5282   -1.8825 O.3     1  UNL1       -0.5058
     15 C          -8.2864   -1.0382   -0.1261 C.ar    1  UNL1        0.0223
     16 C          -7.6371   -1.8178    0.8281 C.ar    1  UNL1        0.1239
     17 O          -8.4032   -2.6261    1.6146 O.3     1  UNL1       -0.5065
     18 C          -6.2528   -1.7729    0.9701 C.ar    1  UNL1        0.0231
     19 C          -5.5094   -0.9410    0.1308 C.ar    1  UNL1        0.1462
     20 O          -4.1492   -0.9258    0.3186 O.2     1  UNL1       -0.4544
     21 H           2.2593    0.4547    1.4982 H       1  UNL1        0.2921
     22 H           0.3317    1.6430    1.6316 H       1  UNL1        0.0654
     23 H          -2.0519    1.6854    1.0239 H       1  UNL1        0.0626
     24 H          -1.5294   -1.9245   -1.2872 H       1  UNL1        0.0626
     25 H           0.8693   -1.9534   -0.6711 H       1  UNL1        0.0654
     26 H          -3.2532    1.2872   -2.1137 H       1  UNL1        0.0693
     27 H          -7.5818    1.0511   -2.4066 H       1  UNL1        0.2922
     28 H          -9.3680   -1.0767   -0.2205 H       1  UNL1        0.0691
     29 H          -7.8257   -3.1573    2.1875 H       1  UNL1        0.2921
     30 H          -5.7434   -2.3702    1.7199 H       1  UNL1        0.0691
@<TRIPOS>BOND
     1     1    21    1
     2     2     1    1
     3     3     2   ar
     4     3    22    1
     5     4     3   ar
     6     4    23    1
     7     5     4   ar
     8     6     5   ar
     9     6    24    1
    10     7     6   ar
    11     7     2   ar
    12     7    25    1
    13     8     5    1
    14     9     8   ar
    15     9    26    1
    16    10     9   ar
    17    11    10    2
    18    12    10   ar
    19    13    12   ar
    20    14    13    1
    21    14    27    1
    22    15    13   ar
    23    15    28    1
    24    16    15   ar
    25    17    16    1
    26    17    29    1
    27    18    16   ar
    28    18    30    1
    29    19    18   ar
    30    19    12   ar
    31    20    19   ar
    32    20     8   ar
@<TRIPOS>MOLECULE
mol_371_akc_aac00426_15
>356.sdf
 88 91 0 0 0
SMALL
GASTEIGER

@<TRIPOS>ATOM
      1 C           5.7672   -0.2878    1.6014 C.3     1  UNL1       -0.0626
      2 C           4.9791    0.8134    0.8943 C.3     1  UNL1       -0.0446
      3 C           5.3845    2.1669    1.4985 C.3     1  UNL1       -0.0626
      4 C           5.1952    0.8193   -0.6326 C.3     1  UNL1       -0.0235
      5 C           4.8169   -0.4800   -1.3966 C.3     1  UNL1        0.1029
      6 N           3.3863   -0.7795   -1.2233 N.am    1  UNL1       -0.2698
      7 C           2.9457   -1.9494   -0.6463 C.2     1  UNL1        0.4014
      8 O           3.7001   -2.8408   -0.2713 O.2     1  UNL1       -0.2264
      9 O           1.5874   -1.9732   -0.5247 O.3     1  UNL1       -0.4447
     10 C           0.9186   -3.1388    0.0689 C.3     1  UNL1        0.1068
     11 C           1.3010   -3.3355    1.5438 C.3     1  UNL1       -0.0253
     12 C          -0.5996   -2.8631    0.0176 C.3     1  UNL1       -0.0253
     13 C           1.1768   -4.4116   -0.7498 C.3     1  UNL1       -0.0253
     14 C           5.2818   -0.2572   -2.8849 C.2     1  UNL1        0.2366
     15 O           4.5256    0.2779   -3.7016 O.2     1  UNL1       -0.2735
     16 N           6.6287   -0.4788   -3.1939 N.am    1  UNL1       -0.2884
     17 C           7.6268   -1.0934   -2.3287 C.3     1  UNL1        0.0156
     18 C           8.8129   -0.1529   -2.4105 C.3     1  UNL1       -0.0350
     19 C           8.7905    0.2945   -3.8579 C.3     1  UNL1       -0.0243
     20 C           7.2949    0.2960   -4.2630 C.3     1  UNL1        0.1025
     21 C           7.2368   -0.0996   -5.7717 C.2     1  UNL1        0.2376
     22 O           6.6537   -1.0630   -6.2460 O.2     1  UNL1       -0.2735
     23 N           8.0219    0.7972   -6.4925 N.am    1  UNL1       -0.2686
     24 C           8.3587    0.8159   -7.8722 C.3     1  UNL1        0.1527
     25 C           7.4682    1.8730   -7.2456 C.3     1  UNL1        0.1527
     26 C           8.0007    3.2163   -6.9357 C.2     1  UNL1        0.3306
     27 O           8.8717    3.7474   -7.6079 O.2     1  UNL1       -0.2486
     28 O           7.4704    3.7000   -5.7823 O.3     1  UNL1       -0.4585
     29 C           8.0512    4.9348   -5.3405 C.3     1  UNL1        0.1176
     30 C           7.4413    5.4020   -4.0345 C.ar    1  UNL1       -0.0103
     31 C           6.4108    4.7057   -3.3866 C.ar    1  UNL1       -0.0554
     32 C           5.8786    5.1744   -2.1826 C.ar    1  UNL1       -0.0614
     33 C           6.3667    6.3476   -1.6101 C.ar    1  UNL1       -0.0617
     34 C           7.3867    7.0539   -2.2426 C.ar    1  UNL1       -0.0614
     35 C           7.9205    6.5854   -3.4457 C.ar    1  UNL1       -0.0554
     36 C           7.8200   -0.0735   -8.9196 C.2     1  UNL1        0.3306
     37 O           6.7655    0.1518   -9.4965 O.2     1  UNL1       -0.2486
     38 O           8.7289   -1.0279   -9.2539 O.3     1  UNL1       -0.4585
     39 C           8.4213   -1.7635  -10.4459 C.3     1  UNL1        0.1176
     40 C           9.5150   -2.7769  -10.6948 C.ar    1  UNL1       -0.0103
     41 C           9.7740   -3.7818   -9.7508 C.ar    1  UNL1       -0.0554
     42 C          10.7546   -4.7463   -9.9757 C.ar    1  UNL1       -0.0614
     43 C          11.5068   -4.7181  -11.1596 C.ar    1  UNL1       -0.0617
     44 C          11.2640   -3.7215  -12.1047 C.ar    1  UNL1       -0.0614
     45 C          10.2749   -2.7553  -11.8719 C.ar    1  UNL1       -0.0554
     46 H           5.5602   -0.2733    2.6772 H       1  UNL1        0.0232
     47 H           5.5033   -1.2811    1.2327 H       1  UNL1        0.0232
     48 H           6.8457   -0.1494    1.4661 H       1  UNL1        0.0232
     49 H           3.9107    0.6672    1.0938 H       1  UNL1        0.0296
     50 H           6.4746    2.2665    1.5621 H       1  UNL1        0.0232
     51 H           5.0041    3.0076    0.9097 H       1  UNL1        0.0232
     52 H           4.9860    2.2638    2.5148 H       1  UNL1        0.0232
     53 H           4.6062    1.6465   -1.0556 H       1  UNL1        0.0290
     54 H           6.2430    1.0742   -0.8371 H       1  UNL1        0.0290
     55 H           5.3677   -1.3311   -0.9991 H       1  UNL1        0.0596
     56 H           2.6879   -0.1236   -1.5376 H       1  UNL1        0.1528
     57 H           1.0402   -2.4518    2.1372 H       1  UNL1        0.0268
     58 H           0.7790   -4.1982    1.9763 H       1  UNL1        0.0268
     59 H           2.3729   -3.4981    1.6785 H       1  UNL1        0.0268
     60 H          -0.9122   -2.5397   -0.9809 H       1  UNL1        0.0268
     61 H          -1.1781   -3.7571    0.2852 H       1  UNL1        0.0268
     62 H          -0.8864   -2.0663    0.7131 H       1  UNL1        0.0268
     63 H           0.8733   -4.2697   -1.7927 H       1  UNL1        0.0268
     64 H           2.2320   -4.6941   -0.7594 H       1  UNL1        0.0268
     65 H           0.6179   -5.2642   -0.3439 H       1  UNL1        0.0268
     66 H           7.8745   -2.0687   -2.7629 H       1  UNL1        0.0465
     67 H           7.3125   -1.2378   -1.2971 H       1  UNL1        0.0465
     68 H           8.6634    0.7124   -1.7549 H       1  UNL1        0.0281
     69 H           9.7557   -0.6346   -2.1359 H       1  UNL1        0.0281
     70 H           9.2453    1.2834   -3.9846 H       1  UNL1        0.0288
     71 H           9.3711   -0.4129   -4.4645 H       1  UNL1        0.0288
     72 H           6.8964    1.3164   -4.1956 H       1  UNL1        0.0597
     73 H           9.3990    1.0798   -8.0333 H       1  UNL1        0.0641
     74 H           6.3974    1.8136   -7.4079 H       1  UNL1        0.0641
     75 H           9.1267    4.7849   -5.1831 H       1  UNL1        0.0749
     76 H           7.8863    5.7052   -6.1029 H       1  UNL1        0.0749
     77 H           6.0011    3.7925   -3.8133 H       1  UNL1        0.0621
     78 H           5.0765    4.6264   -1.6950 H       1  UNL1        0.0618
     79 H           5.9485    6.7127   -0.6761 H       1  UNL1        0.0618
     80 H           7.7642    7.9727   -1.8000 H       1  UNL1        0.0618
     81 H           8.7146    7.1554   -3.9246 H       1  UNL1        0.0621
     82 H           7.4642   -2.2869  -10.3387 H       1  UNL1        0.0749
     83 H           8.3543   -1.0674  -11.2923 H       1  UNL1        0.0749
     84 H           9.1993   -3.8184   -8.8266 H       1  UNL1        0.0621
     85 H          10.9440   -5.5215   -9.2337 H       1  UNL1        0.0618
     86 H          12.2682   -5.4684  -11.3339 H       1  UNL1        0.0618
     87 H          11.8448   -3.7007  -13.0192 H       1  UNL1        0.0618
     88 H          10.1081   -1.9940  -12.6295 H       1  UNL1        0.0621
@<TRIPOS>BOND
     1     1    46    1
     2     1    47    1
     3     1    48    1
     4     2     1    1
     5     2    49    1
     6     3     2    1
     7     3    50    1
     8     3    51    1
     9     3    52    1
    10     4     2    1
    11     4    53    1
    12     4    54    1
    13     5     4    1
    14     5    55    1
    15     6     5    1
    16     6    56    1
    17     7     6   am
    18     8     7    2
    19     9     7    1
    20    10     9    1
    21    11    10    1
    22    11    57    1
    23    11    58    1
    24    11    59    1
    25    12    10    1
    26    12    60    1
    27    12    61    1
    28    12    62    1
    29    13    10    1
    30    13    63    1
    31    13    64    1
    32    13    65    1
    33    14     5    1
    34    15    14    2
    35    16    14   am
    36    17    16    1
    37    17    66    1
    38    17    67    1
    39    18    17    1
    40    18    68    1
    41    18    69    1
    42    19    18    1
    43    19    70    1
    44    19    71    1
    45    20    19    1
    46    20    16    1
    47    20    72    1
    48    21    20    1
    49    22    21    2
    50    23    21   am
    51    24    23    1
    52    24    73    1
    53    25    24    1
    54    25    23    1
    55    25    74    1
    56    26    25    1
    57    27    26    2
    58    28    26    1
    59    29    28    1
    60    29    75    1
    61    29    76    1
    62    30    29    1
    63    31    30   ar
    64    31    77    1
    65    32    31   ar
    66    32    78    1
    67    33    32   ar
    68    33    79    1
    69    34    33   ar
    70    34    80    1
    71    35    34   ar
    72    35    30   ar
    73    35    81    1
    74    36    24    1
    75    37    36    2
    76    38    36    1
    77    39    38    1
    78    39    82    1
    79    39    83    1
    80    40    39    1
    81    41    40   ar
    82    41    84    1
    83    42    41   ar
    84    42    85    1
    85    43    42   ar
    86    43    86    1
    87    44    43   ar
    88    44    87    1
    89    45    44   ar
    90    45    40   ar
    91    45    88    1
@<TRIPOS>MOLECULE
mol_372_akc_ajtmh15_0448
>357.sdf
 45 48 0 0 0
SMALL
GASTEIGER

@<TRIPOS>ATOM
      1 O          -2.2981   -1.2518   -1.7804 O.3     1  UNL1       -0.5043
      2 C          -3.6476   -1.1875   -2.0498 C.ar    1  UNL1        0.1479
      3 C          -4.4533   -0.4793   -1.1370 C.ar    1  UNL1        0.0207
      4 C          -5.8212   -0.3929   -1.4249 C.ar    1  UNL1       -0.0523
      5 C          -6.3493   -0.9594   -2.5849 C.ar    1  UNL1       -0.0520
      6 C          -5.5294   -1.6844   -3.4597 C.ar    1  UNL1        0.0040
      7 C          -4.1511   -1.8305   -3.1940 C.ar    1  UNL1        0.1125
      8 N          -3.3587   -2.5730   -4.0026 N.ar    1  UNL1       -0.2513
      9 C          -3.9148   -3.1591   -5.0865 C.ar    1  UNL1        0.0284
     10 C          -5.2437   -3.0463   -5.4305 C.ar    1  UNL1       -0.0430
     11 C          -6.0654   -2.2921   -4.6027 C.ar    1  UNL1       -0.0510
     12 C          -3.8476    0.1168    0.1279 C.3     1  UNL1        0.0774
     13 N          -4.4734   -0.4491    1.3140 N.am    1  UNL1       -0.3004
     14 C          -3.8294   -1.4070    2.0709 C.2     1  UNL1        0.2448
     15 O          -2.6904   -1.8027    1.8574 O.2     1  UNL1       -0.2702
     16 C          -4.5839   -1.9727    3.2180 C.ar    1  UNL1        0.0367
     17 C          -5.9658   -2.2152    3.1448 C.ar    1  UNL1       -0.0496
     18 C          -6.6218   -2.8195    4.2254 C.ar    1  UNL1       -0.0610
     19 C          -5.9105   -3.1751    5.3682 C.ar    1  UNL1       -0.0617
     20 C          -4.5370   -2.9400    5.4387 C.ar    1  UNL1       -0.0610
     21 C          -3.8800   -2.3490    4.3655 C.ar    1  UNL1       -0.0496
     22 C          -3.8289    1.6429    0.1531 C.ar    1  UNL1       -0.0227
     23 C          -2.5874    2.3044    0.1019 C.ar    1  UNL1       -0.0565
     24 C          -2.5130    3.6973    0.0596 C.ar    1  UNL1       -0.0614
     25 C          -3.6791    4.4554    0.0594 C.ar    1  UNL1       -0.0617
     26 C          -4.9171    3.8219    0.1300 C.ar    1  UNL1       -0.0614
     27 C          -4.9917    2.4280    0.1926 C.ar    1  UNL1       -0.0565
     28 H          -2.1248   -2.1784   -1.5324 H       1  UNL1        0.2922
     29 H          -6.5013    0.1163   -0.7509 H       1  UNL1        0.0622
     30 H          -7.4121   -0.8480   -2.7893 H       1  UNL1        0.0624
     31 H          -3.2317   -3.7488   -5.6935 H       1  UNL1        0.0830
     32 H          -5.6409   -3.5396   -6.3131 H       1  UNL1        0.0633
     33 H          -7.1198   -2.1902   -4.8462 H       1  UNL1        0.0625
     34 H          -2.7984   -0.1900    0.1766 H       1  UNL1        0.0600
     35 H          -5.3836   -0.1135    1.5843 H       1  UNL1        0.1499
     36 H          -6.5267   -1.9854    2.2478 H       1  UNL1        0.0625
     37 H          -7.6864   -3.0260    4.1625 H       1  UNL1        0.0618
     38 H          -6.4226   -3.6539    6.2015 H       1  UNL1        0.0618
     39 H          -3.9794   -3.2323    6.3275 H       1  UNL1        0.0618
     40 H          -2.7999   -2.1880    4.4156 H       1  UNL1        0.0625
     41 H          -1.6614    1.7302    0.0836 H       1  UNL1        0.0621
     42 H          -1.5431    4.1856    0.0139 H       1  UNL1        0.0618
     43 H          -3.6230    5.5389    0.0030 H       1  UNL1        0.0618
     44 H          -5.8284    4.4141    0.1270 H       1  UNL1        0.0618
     45 H          -5.9737    1.9731    0.2544 H       1  UNL1        0.0621
@<TRIPOS>BOND
     1     1    28    1
     2     2     1    1
     3     3     2   ar
     4     4     3   ar
     5     4    29    1
     6     5     4   ar
     7     5    30    1
     8     6     5   ar
     9     7     6   ar
    10     7     2   ar
    11     8     7   ar
    12     9     8   ar
    13     9    31    1
    14    10     9   ar
    15    10    32    1
    16    11    10   ar
    17    11     6   ar
    18    11    33    1
    19    13    12    1
    20    13    35    1
    21    14    13   am
    22    15    14    2
    23    16    14    1
    24    17    16   ar
    25    17    36    1
    26    18    17   ar
    27    18    37    1
    28    19    18   ar
    29    19    38    1
    30    20    19   ar
    31    20    39    1
    32    21    20   ar
    33    21    16   ar
    34    21    40    1
    35    22    12    1
    36    23    22   ar
    37    23    41    1
    38    24    23   ar
    39    24    42    1
    40    25    24   ar
    41    25    43    1
    42    26    25   ar
    43    26    44    1
    44    27    26   ar
    45    27    22   ar
    46    27    45    1
    47    12    34    1
    48    12     3    1
@<TRIPOS>MOLECULE
mol_373_akc_ajtmh15_0448
>358.sdf
 58 63 0 0 0
SMALL
GASTEIGER

@<TRIPOS>ATOM
      1 C           5.0061   -0.0239    1.8096 C.3     1  UNL1        0.0517
      2 N           3.8909    0.9009    1.6714 N.ar    1  UNL1       -0.3027
      3 C           2.5572    0.5932    1.8798 C.ar    1  UNL1        0.2514
      4 N           2.1370   -0.6903    1.9944 N.2     1  UNL1       -0.1098
      5 N           1.8673   -1.1750    3.1263 N.2     1  UNL1       -0.1439
      6 C           1.1316   -2.3845    2.8813 C.ar    1  UNL1        0.1150
      7 C           1.6122   -3.3196    1.9329 C.ar    1  UNL1        0.0111
      8 C           2.9681   -3.6901    1.8657 C.ar    1  UNL1       -0.0519
      9 C           3.4169   -4.5907    0.9029 C.ar    1  UNL1       -0.0611
     10 C           2.5374   -5.0693   -0.0624 C.ar    1  UNL1       -0.0612
     11 C           1.1911   -4.7133   -0.0140 C.ar    1  UNL1       -0.0540
     12 C           0.7062   -3.8901    1.0119 C.ar    1  UNL1       -0.0157
     13 C          -0.6623   -3.6285    1.1437 C.ar    1  UNL1       -0.0521
     14 C          -1.1290   -2.9874    2.2875 C.ar    1  UNL1       -0.0378
     15 C          -0.2352   -2.4384    3.2222 C.ar    1  UNL1        0.0594
     16 N          -0.6827   -2.5650    4.5928 N.pl3   1  UNL1       -0.3128
     17 C          -0.1894   -1.9096    5.7418 C.ar    1  UNL1        0.0314
     18 C          -0.1444   -0.5149    5.8155 C.ar    1  UNL1       -0.0405
     19 C           0.1738    0.1196    7.0197 C.ar    1  UNL1       -0.0600
     20 C           0.4674   -0.6328    8.1589 C.ar    1  UNL1       -0.0616
     21 C           0.4421   -2.0219    8.0974 C.ar    1  UNL1       -0.0600
     22 C           0.1041   -2.6542    6.8994 C.ar    1  UNL1       -0.0405
     23 N           1.8197    1.6780    1.7017 N.ar    1  UNL1       -0.2094
     24 C           2.6825    2.6888    1.3696 C.ar    1  UNL1        0.0912
     25 C           2.4080    4.0249    1.0331 C.ar    1  UNL1       -0.0342
     26 C           3.4787    4.8812    0.7349 C.ar    1  UNL1       -0.0596
     27 C           4.7913    4.4150    0.7642 C.ar    1  UNL1       -0.0597
     28 C           5.0819    3.0836    1.0745 C.ar    1  UNL1       -0.0360
     29 C           3.9974    2.2420    1.3691 C.ar    1  UNL1        0.0707
     30 C           5.3129   -0.8566    0.5818 C.ar    1  UNL1       -0.0276
     31 C           5.0901   -0.4219   -0.7316 C.ar    1  UNL1       -0.0569
     32 C           5.4345   -1.2352   -1.8197 C.ar    1  UNL1       -0.0614
     33 C           6.0194   -2.4826   -1.6112 C.ar    1  UNL1       -0.0617
     34 C           6.2789   -2.9121   -0.3152 C.ar    1  UNL1       -0.0614
     35 C           5.9364   -2.1028    0.7707 C.ar    1  UNL1       -0.0569
     36 H           4.7744   -0.6674    2.6643 H       1  UNL1        0.0542
     37 H           5.8961    0.5569    2.0746 H       1  UNL1        0.0542
     38 H           3.6689   -3.3068    2.6046 H       1  UNL1        0.0624
     39 H           4.4563   -4.9052    0.8943 H       1  UNL1        0.0618
     40 H           2.8978   -5.7304   -0.8440 H       1  UNL1        0.0618
     41 H           0.5158   -5.1040   -0.7724 H       1  UNL1        0.0624
     42 H          -1.3773   -4.0310    0.4323 H       1  UNL1        0.0624
     43 H          -2.1959   -2.9827    2.5009 H       1  UNL1        0.0637
     44 H          -0.6300   -3.5685    4.7727 H       1  UNL1        0.1522
     45 H          -0.4092    0.0811    4.9442 H       1  UNL1        0.0636
     46 H           0.1633    1.2038    7.0721 H       1  UNL1        0.0618
     47 H           0.7030   -0.1327    9.0943 H       1  UNL1        0.0618
     48 H           0.6640   -2.6118    8.9831 H       1  UNL1        0.0618
     49 H           0.0576   -3.7420    6.8827 H       1  UNL1        0.0636
     50 H           1.3843    4.3794    1.0004 H       1  UNL1        0.0639
     51 H           3.2759    5.9191    0.4776 H       1  UNL1        0.0618
     52 H           5.6074    5.1002    0.5302 H       1  UNL1        0.0618
     53 H           6.1061    2.7247    1.0751 H       1  UNL1        0.0639
     54 H           4.6432    0.5465   -0.9405 H       1  UNL1        0.0621
     55 H           5.2437   -0.8927   -2.8341 H       1  UNL1        0.0618
     56 H           6.2741   -3.1150   -2.4572 H       1  UNL1        0.0618
     57 H           6.7354   -3.8841   -0.1460 H       1  UNL1        0.0618
     58 H           6.1436   -2.4651    1.7755 H       1  UNL1        0.0621
@<TRIPOS>BOND
     1     1    36    1
     2     1    37    1
     3     2     1    1
     4     3     2   ar
     5     4     3    1
     6     5     4    2
     7     6     5    1
     8     7     6   ar
     9     8     7   ar
    10     8    38    1
    11     9     8   ar
    12     9    39    1
    13    10     9   ar
    14    10    40    1
    15    11    10   ar
    16    11    41    1
    17    12    11   ar
    18    12     7   ar
    19    13    12   ar
    20    13    42    1
    21    14    13   ar
    22    14    43    1
    23    15    14   ar
    24    15     6   ar
    25    16    15    1
    26    16    44    1
    27    17    16    1
    28    18    17   ar
    29    18    45    1
    30    19    18   ar
    31    19    46    1
    32    20    19   ar
    33    20    47    1
    34    21    20   ar
    35    21    48    1
    36    22    21   ar
    37    22    17   ar
    38    22    49    1
    39    23     3   ar
    40    24    23   ar
    41    25    24   ar
    42    25    50    1
    43    26    25   ar
    44    26    51    1
    45    27    26   ar
    46    27    52    1
    47    28    27   ar
    48    28    53    1
    49    29    28   ar
    50    29     2   ar
    51    29    24   ar
    52    30     1    1
    53    31    30   ar
    54    31    54    1
    55    32    31   ar
    56    32    55    1
    57    33    32   ar
    58    33    56    1
    59    34    33   ar
    60    34    57    1
    61    35    34   ar
    62    35    30   ar
    63    35    58    1
@<TRIPOS>MOLECULE
mol_374_akc_ajtmh15_0448
>359.sdf
 60 64 0 0 0
SMALL
GASTEIGER

@<TRIPOS>ATOM
      1 C          -9.0225   -1.8838   -4.1276 C.3     1  UNL1       -0.0397
      2 C          -7.8292   -1.4215   -3.3469 C.ar    1  UNL1       -0.0504
      3 C          -7.6536   -0.0701   -3.0434 C.ar    1  UNL1       -0.0585
      4 C          -6.5807    0.3436   -2.2509 C.ar    1  UNL1       -0.0566
      5 C          -5.6538   -0.5844   -1.7486 C.ar    1  UNL1       -0.0276
      6 C          -4.4986   -0.2124   -0.8385 C.3     1  UNL1        0.0514
      7 N          -4.3988    1.2069   -0.5349 N.ar    1  UNL1       -0.3073
      8 C          -5.0779    1.7977    0.5136 C.ar    1  UNL1        0.0704
      9 C          -6.0517    1.3258    1.4044 C.ar    1  UNL1       -0.0360
     10 C          -6.5071    2.2166    2.3810 C.ar    1  UNL1       -0.0597
     11 C          -6.0090    3.5173    2.4545 C.ar    1  UNL1       -0.0596
     12 C          -5.0409    3.9699    1.5463 C.ar    1  UNL1       -0.0342
     13 C          -4.5722    3.0878    0.5591 C.ar    1  UNL1        0.0909
     14 N          -3.6325    3.2799   -0.4210 N.ar    1  UNL1       -0.2143
     15 C          -3.5454    2.1474   -1.0918 C.ar    1  UNL1        0.1995
     16 N          -2.6619    1.8761   -2.0928 N.pl3   1  UNL1       -0.3009
     17 C          -3.0201    1.1216   -3.2878 C.3     1  UNL1        0.0155
     18 C          -1.8583    0.1669   -3.5556 C.3     1  UNL1       -0.0260
     19 C          -0.5430    0.9321   -3.7608 C.3     1  UNL1        0.0384
     20 C          -0.3150    2.0264   -2.7005 C.3     1  UNL1       -0.0260
     21 C          -1.5802    2.8295   -2.3596 C.3     1  UNL1        0.0155
     22 C          -0.4987    1.4994   -5.1735 C.2     1  UNL1        0.2165
     23 O          -1.5013    1.7594   -5.8266 O.2     1  UNL1       -0.2755
     24 N           0.7687    1.6898   -5.6746 N.am    1  UNL1       -0.3105
     25 C           0.8983    1.9959   -7.0785 C.3     1  UNL1        0.0430
     26 C           2.3411    2.0548   -7.4411 C.ar    1  UNL1        0.0069
     27 C           3.1919    3.1419   -7.3945 C.ar    1  UNL1       -0.0500
     28 C           4.4945    2.8298   -7.8698 C.ar    1  UNL1       -0.0544
     29 C           4.6027    1.5120   -8.2535 C.ar    1  UNL1       -0.0240
     30 S           3.1408    0.6562   -8.0266 S.2     1  UNL1       -0.1000
     31 C          -5.8019   -1.9312   -2.1138 C.ar    1  UNL1       -0.0566
     32 C          -6.8766   -2.3448   -2.9049 C.ar    1  UNL1       -0.0585
     33 H          -8.7207   -2.2392   -5.1167 H       1  UNL1        0.0278
     34 H          -9.5269   -2.6934   -3.5892 H       1  UNL1        0.0278
     35 H          -9.7513   -1.0765   -4.2571 H       1  UNL1        0.0278
     36 H          -8.3588    0.6750   -3.4060 H       1  UNL1        0.0620
     37 H          -6.4910    1.4075   -2.0369 H       1  UNL1        0.0621
     38 H          -4.6168   -0.7389    0.1169 H       1  UNL1        0.0542
     39 H          -3.5447   -0.5479   -1.2525 H       1  UNL1        0.0542
     40 H          -6.4454    0.3166    1.3447 H       1  UNL1        0.0639
     41 H          -7.2591    1.8856    3.0937 H       1  UNL1        0.0618
     42 H          -6.3737    4.1898    3.2275 H       1  UNL1        0.0618
     43 H          -4.6487    4.9784    1.6018 H       1  UNL1        0.0639
     44 H          -3.1983    1.8040   -4.1258 H       1  UNL1        0.0465
     45 H          -3.9388    0.5516   -3.2014 H       1  UNL1        0.0465
     46 H          -2.0863   -0.4667   -4.4200 H       1  UNL1        0.0288
     47 H          -1.7362   -0.5049   -2.6952 H       1  UNL1        0.0288
     48 H           0.2761    0.2038   -3.6856 H       1  UNL1        0.0395
     49 H           0.0273    1.5369   -1.7786 H       1  UNL1        0.0288
     50 H           0.4814    2.7140   -3.0075 H       1  UNL1        0.0288
     51 H          -1.3634    3.4697   -1.4962 H       1  UNL1        0.0465
     52 H          -1.8501    3.4913   -3.1932 H       1  UNL1        0.0465
     53 H           1.5547    1.2641   -5.2023 H       1  UNL1        0.1490
     54 H           0.3653    1.2311   -7.6562 H       1  UNL1        0.0517
     55 H           0.4054    2.9559   -7.2698 H       1  UNL1        0.0517
     56 H           2.8811    4.1222   -7.0476 H       1  UNL1        0.0626
     57 H           5.3118    3.5384   -7.9357 H       1  UNL1        0.0623
     58 H           5.4691    1.0080   -8.6583 H       1  UNL1        0.0693
     59 H          -5.0829   -2.6744   -1.7745 H       1  UNL1        0.0621
     60 H          -6.9767   -3.3974   -3.1602 H       1  UNL1        0.0620
@<TRIPOS>BOND
     1     1    33    1
     2     1    34    1
     3     1    35    1
     4     2     1    1
     5     3     2   ar
     6     3    36    1
     7     4     3   ar
     8     4    37    1
     9     5     4   ar
    10     6     5    1
    11     6    38    1
    12     6    39    1
    13     7     6    1
    14     8     7   ar
    15     9     8   ar
    16     9    40    1
    17    10     9   ar
    18    10    41    1
    19    11    10   ar
    20    11    42    1
    21    12    11   ar
    22    12    43    1
    23    13    12   ar
    24    13     8   ar
    25    14    13   ar
    26    15    14   ar
    27    15     7   ar
    28    16    15    1
    29    17    16    1
    30    17    44    1
    31    17    45    1
    32    18    17    1
    33    18    46    1
    34    18    47    1
    35    19    18    1
    36    19    48    1
    37    20    19    1
    38    20    49    1
    39    20    50    1
    40    21    20    1
    41    21    16    1
    42    21    51    1
    43    21    52    1
    44    22    19    1
    45    23    22    2
    46    24    22   am
    47    24    53    1
    48    25    24    1
    49    25    54    1
    50    25    55    1
    51    26    25    1
    52    27    26   ar
    53    27    56    1
    54    28    27   ar
    55    28    57    1
    56    29    28   ar
    57    29    58    1
    58    30    29   ar
    59    30    26   ar
    60    31     5   ar
    61    31    59    1
    62    32    31   ar
    63    32     2   ar
    64    32    60    1
@<TRIPOS>MOLECULE
mol_375_akc_s11745_015_4114_9
>360.sdf
 83 82 0 0 0
SMALL
GASTEIGER

@<TRIPOS>ATOM
      1 C         -10.8537    2.3353   -4.2818 C.3     1  UNL1        0.0375
      2 O         -12.1214    2.5937   -4.8865 O.3     1  UNL1       -0.3686
      3 C         -12.8465    3.7144   -4.3271 C.3     1  UNL1        0.1547
      4 C         -12.1016    5.0620   -4.4162 C.3     1  UNL1       -0.0127
      5 C         -11.8520    5.4781   -5.8706 C.3     1  UNL1       -0.0319
      6 C         -11.0838    6.7489   -6.0752 C.2     1  UNL1       -0.0878
      7 C          -9.7455    6.7810   -6.1251 C.2     1  UNL1       -0.0876
      8 C          -8.8905    5.5757   -5.8489 C.3     1  UNL1       -0.0313
      9 C          -8.0413    5.2108   -7.0480 C.3     1  UNL1       -0.0313
     10 C          -7.1949    3.9948   -6.7912 C.2     1  UNL1       -0.0876
     11 C          -6.8360    3.1757   -7.7842 C.2     1  UNL1       -0.0879
     12 C          -7.2630    3.4207   -9.2061 C.3     1  UNL1       -0.0348
     13 C          -6.7496    2.3470  -10.1499 C.3     1  UNL1       -0.0496
     14 C          -7.2893    0.9746   -9.7471 C.3     1  UNL1       -0.0528
     15 C          -8.8131    0.9679   -9.7590 C.3     1  UNL1       -0.0530
     16 C          -9.3266    1.2932  -11.1534 C.3     1  UNL1       -0.0531
     17 C         -10.8359    1.3059  -11.1571 C.3     1  UNL1       -0.0531
     18 C         -11.3399    1.6217  -12.5513 C.3     1  UNL1       -0.0531
     19 C         -12.8551    1.6250  -12.5535 C.3     1  UNL1       -0.0531
     20 C         -13.3657    1.9356  -13.9462 C.3     1  UNL1       -0.0531
     21 C         -14.8818    1.9391  -13.9426 C.3     1  UNL1       -0.0531
     22 C         -15.3992    2.2472  -15.3325 C.3     1  UNL1       -0.0531
     23 C         -16.9180    2.2490  -15.3281 C.3     1  UNL1       -0.0530
     24 C         -17.4199    2.5550  -16.7257 C.3     1  UNL1       -0.0528
     25 C         -18.9416    2.5653  -16.7694 C.3     1  UNL1       -0.0507
     26 C         -19.4703    2.8740  -18.1761 C.3     1  UNL1       -0.0467
     27 C         -19.0008    1.8391  -19.2008 C.3     1  UNL1       -0.0627
     28 C         -20.9960    2.9229  -18.1494 C.3     1  UNL1       -0.0627
     29 C         -14.1769    3.8314   -5.0773 C.2     1  UNL1        0.3339
     30 O         -14.3240    2.9075   -6.0488 O.3     1  UNL1       -0.4788
     31 O         -15.0321    4.7085   -4.8584 O.2     1  UNL1       -0.2481
     32 H         -10.0880    2.9481   -4.7552 H       1  UNL1        0.0524
     33 H         -10.8646    2.5016   -3.2002 H       1  UNL1        0.0524
     34 H         -10.5637    1.2967   -4.4761 H       1  UNL1        0.0524
     35 H         -13.1026    3.4646   -3.2882 H       1  UNL1        0.0713
     36 H         -12.6960    5.8434   -3.9244 H       1  UNL1        0.0299
     37 H         -11.1518    4.9945   -3.8744 H       1  UNL1        0.0299
     38 H         -11.3566    4.6596   -6.4064 H       1  UNL1        0.0308
     39 H         -12.8072    5.6387   -6.3743 H       1  UNL1        0.0308
     40 H         -11.6590    7.6467   -6.3162 H       1  UNL1        0.0569
     41 H          -9.2439    7.7096   -6.3903 H       1  UNL1        0.0569
     42 H          -8.2608    5.7643   -4.9778 H       1  UNL1        0.0310
     43 H          -9.5000    4.7110   -5.5967 H       1  UNL1        0.0310
     44 H          -8.7098    5.0325   -7.8959 H       1  UNL1        0.0310
     45 H          -7.3939    6.0517   -7.3057 H       1  UNL1        0.0310
     46 H          -6.8504    3.7843   -5.7820 H       1  UNL1        0.0569
     47 H          -6.2130    2.3100   -7.5621 H       1  UNL1        0.0569
     48 H          -8.3584    3.4570   -9.2513 H       1  UNL1        0.0307
     49 H          -6.9129    4.3991   -9.5397 H       1  UNL1        0.0307
     50 H          -7.0565    2.5938  -11.1723 H       1  UNL1        0.0268
     51 H          -5.6584    2.3429  -10.1601 H       1  UNL1        0.0268
     52 H          -6.9042    0.2082  -10.4251 H       1  UNL1        0.0265
     53 H          -6.9384    0.7085   -8.7448 H       1  UNL1        0.0265
     54 H          -9.1849   -0.0043   -9.4316 H       1  UNL1        0.0265
     55 H          -9.2118    1.6923   -9.0402 H       1  UNL1        0.0265
     56 H          -8.9771    2.2760  -11.4884 H       1  UNL1        0.0265
     57 H          -8.9407    0.5565  -11.8665 H       1  UNL1        0.0265
     58 H         -11.2108    0.3302  -10.8316 H       1  UNL1        0.0265
     59 H         -11.2048    2.0554  -10.4459 H       1  UNL1        0.0265
     60 H         -10.9622    2.5994  -12.8766 H       1  UNL1        0.0265
     61 H         -10.9648    0.8760  -13.2627 H       1  UNL1        0.0265
     62 H         -13.2316    0.6481  -12.2257 H       1  UNL1        0.0265
     63 H         -13.2288    2.3720  -11.8424 H       1  UNL1        0.0265
     64 H         -12.9889    2.9121  -14.2746 H       1  UNL1        0.0265
     65 H         -12.9933    1.1880  -14.6575 H       1  UNL1        0.0265
     66 H         -15.2572    0.9626  -13.6127 H       1  UNL1        0.0265
     67 H         -15.2530    2.6879  -13.2324 H       1  UNL1        0.0265
     68 H         -15.0236    3.2228  -15.6657 H       1  UNL1        0.0265
     69 H         -15.0259    1.4988  -16.0432 H       1  UNL1        0.0265
     70 H         -17.2888    1.2679  -15.0059 H       1  UNL1        0.0265
     71 H         -17.2947    2.9927  -14.6165 H       1  UNL1        0.0265
     72 H         -17.0309    3.5237  -17.0623 H       1  UNL1        0.0265
     73 H         -17.0193    1.7906  -17.3992 H       1  UNL1        0.0265
     74 H         -19.3263    1.5960  -16.4275 H       1  UNL1        0.0268
     75 H         -19.3149    3.3189  -16.0633 H       1  UNL1        0.0268
     76 H         -19.0985    3.8605  -18.4821 H       1  UNL1        0.0295
     77 H         -19.3192    0.8316  -18.9125 H       1  UNL1        0.0232
     78 H         -19.4066    2.0602  -20.1920 H       1  UNL1        0.0232
     79 H         -17.9114    1.8326  -19.3024 H       1  UNL1        0.0232
     80 H         -21.4144    1.9574  -17.8447 H       1  UNL1        0.0232
     81 H         -21.3499    3.6829  -17.4450 H       1  UNL1        0.0232
     82 H         -21.3921    3.1693  -19.1393 H       1  UNL1        0.0232
     83 H         -13.5209    2.3328   -6.0398 H       1  UNL1        0.2951
@<TRIPOS>BOND
     1     1    32    1
     2     1    33    1
     3     1    34    1
     4     2     1    1
     5     3     2    1
     6     3    35    1
     7     4     3    1
     8     4    36    1
     9     4    37    1
    10     5     4    1
    11     5    38    1
    12     5    39    1
    13     6     5    1
    14     6    40    1
    15     7     6    2
    16     7    41    1
    17     8     7    1
    18     8    42    1
    19     8    43    1
    20     9     8    1
    21     9    44    1
    22     9    45    1
    23    10     9    1
    24    10    46    1
    25    11    10    2
    26    11    47    1
    27    12    11    1
    28    12    48    1
    29    12    49    1
    30    13    12    1
    31    13    50    1
    32    13    51    1
    33    14    13    1
    34    14    52    1
    35    14    53    1
    36    15    14    1
    37    15    54    1
    38    15    55    1
    39    16    15    1
    40    16    56    1
    41    16    57    1
    42    17    16    1
    43    17    58    1
    44    17    59    1
    45    18    17    1
    46    18    60    1
    47    18    61    1
    48    19    18    1
    49    19    62    1
    50    19    63    1
    51    20    19    1
    52    20    64    1
    53    20    65    1
    54    21    20    1
    55    21    66    1
    56    21    67    1
    57    22    21    1
    58    22    68    1
    59    22    69    1
    60    23    22    1
    61    23    70    1
    62    23    71    1
    63    24    23    1
    64    24    72    1
    65    24    73    1
    66    25    24    1
    67    25    74    1
    68    25    75    1
    69    26    25    1
    70    26    76    1
    71    27    26    1
    72    27    77    1
    73    27    78    1
    74    27    79    1
    75    28    26    1
    76    28    80    1
    77    28    81    1
    78    28    82    1
    79    29     3    1
    80    30    29    1
    81    31    29    2
    82    30    83    1
@<TRIPOS>MOLECULE
mol_376_akc_s11745_015_4114_9
>361.sdf
 83 82 0 0 0
SMALL
GASTEIGER

@<TRIPOS>ATOM
      1 C          22.2236   32.7738  -31.0866 C.3     1  UNL1       -0.0650
      2 C          22.0331   31.4748  -30.3181 C.3     1  UNL1       -0.0533
      3 C          22.5253   31.5478  -28.8612 C.3     1  UNL1       -0.0441
      4 C          21.7672   32.6116  -28.0579 C.3     1  UNL1       -0.0624
      5 C          22.3959   30.1525  -28.2195 C.3     1  UNL1       -0.0505
      6 C          22.9110   30.1232  -26.7858 C.3     1  UNL1       -0.0528
      7 C          22.7908   28.7378  -26.1734 C.3     1  UNL1       -0.0530
      8 C          23.2858   28.7870  -24.7358 C.3     1  UNL1       -0.0531
      9 C          23.1458   27.4272  -24.0816 C.3     1  UNL1       -0.0531
     10 C          23.6488   27.4861  -22.6504 C.3     1  UNL1       -0.0531
     11 C          23.5105   26.1181  -22.0111 C.3     1  UNL1       -0.0531
     12 C          24.0266   26.1514  -20.5866 C.3     1  UNL1       -0.0531
     13 C          23.9200   24.7670  -19.9684 C.3     1  UNL1       -0.0531
     14 C          24.4346   24.8157  -18.5444 C.3     1  UNL1       -0.0530
     15 C          24.3660   23.4420  -17.8900 C.3     1  UNL1       -0.0528
     16 C          24.8042   23.4885  -16.4270 C.3     1  UNL1       -0.0496
     17 C          24.0306   24.4896  -15.5681 C.3     1  UNL1       -0.0348
     18 C          22.5571   24.2051  -15.5160 C.2     1  UNL1       -0.0879
     19 C          21.7650   24.5365  -14.4895 C.2     1  UNL1       -0.0876
     20 C          22.2185   25.3182  -13.2901 C.3     1  UNL1       -0.0313
     21 C          21.1331   26.2542  -12.7616 C.3     1  UNL1       -0.0313
     22 C          20.0095   25.4881  -12.1166 C.2     1  UNL1       -0.0876
     23 C          19.7245   25.4636  -10.8091 C.2     1  UNL1       -0.0878
     24 C          20.4718   26.2181   -9.7475 C.3     1  UNL1       -0.0319
     25 C          19.9239   27.6411   -9.6513 C.3     1  UNL1       -0.0127
     26 C          20.7180   28.5089   -8.6821 C.3     1  UNL1        0.1547
     27 O          20.6165   27.9427   -7.3679 O.3     1  UNL1       -0.3686
     28 C          21.5688   28.4991   -6.4614 C.3     1  UNL1        0.0375
     29 C          20.0946   29.9080   -8.7154 C.2     1  UNL1        0.3339
     30 O          19.1288   30.0522   -7.7719 O.3     1  UNL1       -0.4788
     31 O          20.3953   30.7891   -9.5111 O.2     1  UNL1       -0.2481
     32 H          21.9286   32.6385  -32.1314 H       1  UNL1        0.0230
     33 H          21.6077   33.5791  -30.6768 H       1  UNL1        0.0230
     34 H          23.2707   33.0907  -31.0642 H       1  UNL1        0.0230
     35 H          20.9732   31.1937  -30.3419 H       1  UNL1        0.0265
     36 H          22.5814   30.6829  -30.8438 H       1  UNL1        0.0265
     37 H          23.5886   31.8216  -28.8686 H       1  UNL1        0.0298
     38 H          20.7027   32.3653  -27.9862 H       1  UNL1        0.0232
     39 H          22.1636   32.7101  -27.0432 H       1  UNL1        0.0232
     40 H          21.8632   33.6025  -28.5083 H       1  UNL1        0.0232
     41 H          21.3484   29.8258  -28.2399 H       1  UNL1        0.0268
     42 H          22.9641   29.4254  -28.8148 H       1  UNL1        0.0268
     43 H          23.9571   30.4516  -26.7610 H       1  UNL1        0.0265
     44 H          22.3361   30.8136  -26.1605 H       1  UNL1        0.0265
     45 H          21.7446   28.4083  -26.1949 H       1  UNL1        0.0265
     46 H          23.3755   28.0120  -26.7505 H       1  UNL1        0.0265
     47 H          24.3355   29.1056  -24.7138 H       1  UNL1        0.0265
     48 H          22.7121   29.5296  -24.1669 H       1  UNL1        0.0265
     49 H          22.0947   27.1130  -24.0934 H       1  UNL1        0.0265
     50 H          23.7158   26.6803  -24.6471 H       1  UNL1        0.0265
     51 H          24.6985   27.8043  -22.6340 H       1  UNL1        0.0265
     52 H          23.0766   28.2276  -22.0791 H       1  UNL1        0.0265
     53 H          22.4592   25.8061  -22.0190 H       1  UNL1        0.0265
     54 H          24.0746   25.3776  -22.5917 H       1  UNL1        0.0265
     55 H          25.0707   26.4868  -20.5725 H       1  UNL1        0.0265
     56 H          23.4475   26.8740  -19.9977 H       1  UNL1        0.0265
     57 H          22.8731   24.4381  -19.9753 H       1  UNL1        0.0265
     58 H          24.4957   24.0429  -20.5561 H       1  UNL1        0.0265
     59 H          25.4689   25.1800  -18.5248 H       1  UNL1        0.0265
     60 H          23.8247   25.5424  -17.9989 H       1  UNL1        0.0265
     61 H          23.3505   23.0390  -17.9751 H       1  UNL1        0.0265
     62 H          25.0134   22.7427  -18.4322 H       1  UNL1        0.0265
     63 H          24.7094   22.4853  -15.9952 H       1  UNL1        0.0268
     64 H          25.8686   23.7515  -16.3847 H       1  UNL1        0.0268
     65 H          24.4603   24.4524  -14.5605 H       1  UNL1        0.0307
     66 H          24.1857   25.5125  -15.9285 H       1  UNL1        0.0307
     67 H          22.0930   23.6884  -16.3521 H       1  UNL1        0.0569
     68 H          20.7209   24.2371  -14.5412 H       1  UNL1        0.0569
     69 H          22.5412   24.6225  -12.5069 H       1  UNL1        0.0310
     70 H          23.0832   25.9413  -13.5490 H       1  UNL1        0.0310
     71 H          21.6024   26.9474  -12.0557 H       1  UNL1        0.0310
     72 H          20.7303   26.8760  -13.5695 H       1  UNL1        0.0310
     73 H          19.3747   24.9101  -12.7878 H       1  UNL1        0.0569
     74 H          18.8729   24.8705  -10.4737 H       1  UNL1        0.0569
     75 H          20.3601   25.6886   -8.7950 H       1  UNL1        0.0308
     76 H          21.5473   26.2272   -9.9636 H       1  UNL1        0.0308
     77 H          19.9253   28.1160  -10.6417 H       1  UNL1        0.0299
     78 H          18.8743   27.5881   -9.3334 H       1  UNL1        0.0299
     79 H          21.7683   28.5779   -8.9842 H       1  UNL1        0.0713
     80 H          22.5790   28.4759   -6.8806 H       1  UNL1        0.0524
     81 H          21.2897   29.5254   -6.2081 H       1  UNL1        0.0524
     82 H          21.5557   27.9027   -5.5449 H       1  UNL1        0.0524
     83 H          19.0608   29.2204   -7.2573 H       1  UNL1        0.2951
@<TRIPOS>BOND
     1     1    32    1
     2     1    33    1
     3     1    34    1
     4     2     1    1
     5     2    35    1
     6     2    36    1
     7     3     2    1
     8     3    37    1
     9     4     3    1
    10     4    38    1
    11     4    39    1
    12     4    40    1
    13     5     3    1
    14     5    41    1
    15     5    42    1
    16     6     5    1
    17     6    43    1
    18     6    44    1
    19     7     6    1
    20     7    45    1
    21     7    46    1
    22     8     7    1
    23     8    47    1
    24     8    48    1
    25     9     8    1
    26     9    49    1
    27     9    50    1
    28    10     9    1
    29    10    51    1
    30    10    52    1
    31    11    10    1
    32    11    53    1
    33    11    54    1
    34    12    11    1
    35    12    55    1
    36    12    56    1
    37    13    12    1
    38    13    57    1
    39    13    58    1
    40    14    13    1
    41    14    59    1
    42    14    60    1
    43    15    14    1
    44    15    61    1
    45    15    62    1
    46    16    15    1
    47    16    63    1
    48    16    64    1
    49    17    16    1
    50    17    65    1
    51    17    66    1
    52    18    17    1
    53    18    67    1
    54    19    18    2
    55    19    68    1
    56    20    19    1
    57    20    69    1
    58    20    70    1
    59    21    20    1
    60    21    71    1
    61    21    72    1
    62    22    21    1
    63    22    73    1
    64    23    22    2
    65    23    74    1
    66    24    23    1
    67    24    75    1
    68    24    76    1
    69    25    24    1
    70    25    77    1
    71    25    78    1
    72    27    26    1
    73    28    27    1
    74    28    80    1
    75    28    81    1
    76    28    82    1
    77    29    26    1
    78    30    29    1
    79    31    29    2
    80    26    79    1
    81    26    25    1
    82    30    83    1
@<TRIPOS>MOLECULE
mol_377_akc_jejmech201609017
>362.sdf
 37 41 0 0 0
SMALL
GASTEIGER

@<TRIPOS>ATOM
      1 F           2.5736   -0.2258   -0.1881 F       1  UNL1       -0.2055
      2 C           1.2355   -0.2905   -0.1505 C.ar    1  UNL1        0.1234
      3 C           0.5740   -0.0905    1.0529 C.ar    1  UNL1       -0.0258
      4 C          -0.8253   -0.1134    1.0879 C.ar    1  UNL1       -0.0498
      5 C          -1.5845   -0.3500   -0.0734 C.ar    1  UNL1        0.0008
      6 C          -0.8696   -0.5651   -1.2743 C.ar    1  UNL1       -0.0498
      7 C           0.5272   -0.5299   -1.3152 C.ar    1  UNL1       -0.0258
      8 C          -3.0579   -0.2571   -0.0972 C.ar    1  UNL1        0.0758
      9 N          -3.5483    0.3269   -1.2204 N.ar    1  UNL1       -0.2448
     10 C          -4.8687    0.5904   -1.3276 C.ar    1  UNL1        0.0905
     11 C          -5.3174    1.2237   -2.4746 C.ar    1  UNL1       -0.0328
     12 C          -6.6524    1.5824   -2.6237 C.ar    1  UNL1       -0.0415
     13 C          -7.5196    1.2726   -1.5995 C.ar    1  UNL1        0.0284
     14 N          -7.1431    0.6179   -0.4818 N.ar    1  UNL1       -0.2528
     15 C          -5.8322    0.2809   -0.3492 C.ar    1  UNL1        0.0971
     16 C          -5.3227   -0.3900    0.7550 C.ar    1  UNL1        0.0153
     17 C          -3.9332   -0.6562    0.8939 C.ar    1  UNL1       -0.0073
     18 C          -3.6747   -1.3901    2.1918 C.3     1  UNL1        0.0008
     19 C          -5.0656   -1.5376    2.7677 C.ar    1  UNL1       -0.0352
     20 C          -5.4390   -2.1515    3.9539 C.ar    1  UNL1       -0.0577
     21 C          -6.7936   -2.1627    4.2903 C.ar    1  UNL1       -0.0615
     22 C          -7.7444   -1.5654    3.4481 C.ar    1  UNL1       -0.0612
     23 C          -7.3556   -0.9468    2.2552 C.ar    1  UNL1       -0.0537
     24 C          -6.0111   -0.9331    1.9168 C.ar    1  UNL1       -0.0120
     25 H           1.1467    0.1132    1.9512 H       1  UNL1        0.0646
     26 H          -1.3081    0.1167    2.0333 H       1  UNL1        0.0625
     27 H          -1.4155   -0.7268   -2.2034 H       1  UNL1        0.0625
     28 H           1.0564   -0.6634   -2.2542 H       1  UNL1        0.0646
     29 H          -4.6044    1.4551   -3.2628 H       1  UNL1        0.0640
     30 H          -6.9978    2.0975   -3.5134 H       1  UNL1        0.0633
     31 H          -8.5688    1.5496   -1.6459 H       1  UNL1        0.0830
     32 H          -3.2277   -2.3711    2.0067 H       1  UNL1        0.0362
     33 H          -3.0713   -0.7931    2.8791 H       1  UNL1        0.0362
     34 H          -4.7050   -2.6129    4.6063 H       1  UNL1        0.0621
     35 H          -7.1193   -2.6384    5.2125 H       1  UNL1        0.0618
     36 H          -8.7965   -1.5845    3.7235 H       1  UNL1        0.0618
     37 H          -8.1027   -0.4918    1.6121 H       1  UNL1        0.0624
@<TRIPOS>BOND
     1     2     1    1
     2     3     2   ar
     3     3    25    1
     4     4     3   ar
     5     4    26    1
     6     5     4   ar
     7     6     5   ar
     8     6    27    1
     9     7     6   ar
    10     7     2   ar
    11     7    28    1
    12     8     5    1
    13     9     8   ar
    14    10     9   ar
    15    11    10   ar
    16    11    29    1
    17    12    11   ar
    18    12    30    1
    19    13    12   ar
    20    13    31    1
    21    14    13   ar
    22    15    14   ar
    23    15    10   ar
    24    16    15   ar
    25    17    16   ar
    26    17     8   ar
    27    18    17    1
    28    18    32    1
    29    18    33    1
    30    19    18    1
    31    20    19   ar
    32    20    34    1
    33    21    20   ar
    34    21    35    1
    35    22    21   ar
    36    22    36    1
    37    23    22   ar
    38    23    37    1
    39    24    23   ar
    40    24    16    1
    41    24    19   ar
@<TRIPOS>MOLECULE
mol_379_akc_jejmech201608014
>364.sdf
 54 58 0 0 0
SMALL
GASTEIGER

@<TRIPOS>ATOM
      1 O           1.9338    5.6902    6.9010 O.co2   1  UNL1       -0.5760
      2 N           3.1356    5.5755    6.6359 N.pl3   1  UNL1        0.0797
      3 O           4.0414    6.2276    7.1746 O.2     1  UNL1        0.0414
      4 C           3.5215    4.6010    5.6071 C.ar    1  UNL1        0.2749
      5 C           2.5267    3.8589    4.9632 C.ar    1  UNL1        0.0157
      6 C           2.8930    2.9482    3.9779 C.ar    1  UNL1       -0.0536
      7 C           4.2407    2.7889    3.6342 C.ar    1  UNL1       -0.0401
      8 C           5.2436    3.5265    4.2729 C.ar    1  UNL1        0.0398
      9 N           6.6145    3.4057    3.9571 N.am    1  UNL1       -0.2842
     10 C           7.1761    2.6616    2.9314 C.2     1  UNL1        0.2313
     11 O           6.5689    1.9756    2.1088 O.2     1  UNL1       -0.2741
     12 C           8.6999    2.7901    2.8535 C.3     1  UNL1        0.0768
     13 N           9.3586    2.3405    4.1032 N.3     1  UNL1       -0.2815
     14 C           9.0404    0.9112    4.4069 C.3     1  UNL1        0.0044
     15 C           9.5559   -0.1348    3.3770 C.3     1  UNL1       -0.0125
     16 C          10.9895    0.1392    3.0868 C.ar    1  UNL1       -0.0160
     17 C          11.5416    1.3606    3.4158 C.ar    1  UNL1        0.0421
     18 N          12.8800    1.3039    3.1441 N.ar    1  UNL1       -0.3562
     19 C          13.1635    0.1468    2.4557 C.ar    1  UNL1        0.0470
     20 C          14.3595   -0.2622    1.8564 C.ar    1  UNL1       -0.0378
     21 C          14.3644   -1.4937    1.1993 C.ar    1  UNL1       -0.0598
     22 C          13.2272   -2.2986    1.1787 C.ar    1  UNL1       -0.0611
     23 C          12.0403   -1.8827    1.7995 C.ar    1  UNL1       -0.0523
     24 C          11.9967   -0.6246    2.4328 C.ar    1  UNL1        0.0032
     25 C          10.8348    2.5564    3.9876 C.3     1  UNL1        0.0768
     26 C          11.4296    3.0653    5.2937 C.ar    1  UNL1       -0.0245
     27 C          11.4819    4.4519    5.5256 C.ar    1  UNL1       -0.0567
     28 C          12.0589    4.9607    6.6891 C.ar    1  UNL1       -0.0614
     29 C          12.5849    4.0915    7.6413 C.ar    1  UNL1       -0.0617
     30 C          12.5238    2.7146    7.4372 C.ar    1  UNL1       -0.0614
     31 C          11.9421    2.2035    6.2761 C.ar    1  UNL1       -0.0567
     32 C           4.8780    4.4341    5.2756 C.ar    1  UNL1        0.0368
     33 H           1.4746    3.9757    5.2135 H       1  UNL1        0.0685
     34 H           2.1356    2.3552    3.4687 H       1  UNL1        0.0620
     35 H           4.4719    2.0611    2.8626 H       1  UNL1        0.0636
     36 H           7.2801    3.8911    4.5523 H       1  UNL1        0.1548
     37 H           9.0540    2.2419    1.9726 H       1  UNL1        0.0522
     38 H           8.9111    3.8535    2.6802 H       1  UNL1        0.0522
     39 H           7.9605    0.7819    4.5440 H       1  UNL1        0.0430
     40 H           9.4706    0.6767    5.3902 H       1  UNL1        0.0430
     41 H           8.9715   -0.0769    2.4518 H       1  UNL1        0.0326
     42 H           9.4305   -1.1425    3.7880 H       1  UNL1        0.0326
     43 H          13.5582    2.0147    3.3831 H       1  UNL1        0.1657
     44 H          15.2457    0.3633    1.8770 H       1  UNL1        0.0638
     45 H          15.2699   -1.8248    0.6958 H       1  UNL1        0.0618
     46 H          13.2582   -3.2567    0.6656 H       1  UNL1        0.0618
     47 H          11.1589   -2.5159    1.7635 H       1  UNL1        0.0624
     48 H          11.0164    3.3610    3.2578 H       1  UNL1        0.0577
     49 H          11.0787    5.1457    4.7907 H       1  UNL1        0.0621
     50 H          12.0998    6.0347    6.8507 H       1  UNL1        0.0618
     51 H          13.0387    4.4868    8.5461 H       1  UNL1        0.0618
     52 H          12.9308    2.0354    8.1816 H       1  UNL1        0.0618
     53 H          11.9047    1.1248    6.1369 H       1  UNL1        0.0621
     54 H           5.6402    5.0205    5.7828 H       1  UNL1        0.0704
@<TRIPOS>UNITY_ATOM_ATTR
1 1
charge -1
2 1
charge 1
@<TRIPOS>BOND
     1     2     1    1
     2     3     2    2
     3     4     2    1
     4     5     4   ar
     5     5    33    1
     6     6     5   ar
     7     6    34    1
     8     7     6   ar
     9     7    35    1
    10     8     7   ar
    11     9     8    1
    12     9    36    1
    13    10     9   am
    14    11    10    2
    15    12    10    1
    16    12    37    1
    17    12    38    1
    18    13    12    1
    19    14    13    1
    20    14    39    1
    21    14    40    1
    22    15    14    1
    23    15    41    1
    24    15    42    1
    25    16    15    1
    26    17    16   ar
    27    18    17   ar
    28    18    43    1
    29    19    18   ar
    30    20    19   ar
    31    20    44    1
    32    21    20   ar
    33    21    45    1
    34    22    21   ar
    35    22    46    1
    36    23    22   ar
    37    23    47    1
    38    24    23   ar
    39    24    16   ar
    40    24    19   ar
    41    25    17    1
    42    25    13    1
    43    25    48    1
    44    26    25    1
    45    27    26   ar
    46    27    49    1
    47    28    27   ar
    48    28    50    1
    49    29    28   ar
    50    29    51    1
    51    30    29   ar
    52    30    52    1
    53    31    30   ar
    54    31    26   ar
    55    31    53    1
    56    32     8   ar
    57    32     4   ar
    58    32    54    1
@<TRIPOS>MOLECULE
mol_37_akc_fmc_2017_0120
>37.sdf
 38 41 0 0 0
SMALL
GASTEIGER

@<TRIPOS>ATOM
      1 C           1.8939   -0.6104   -1.1467 C.3     1  UNL1       -0.0106
      2 S           2.8683   -0.0210    0.2544 S.3     1  UNL1       -0.0894
      3 C           3.2615   -1.5463    1.0434 C.ar    1  UNL1        0.1902
      4 N           2.7989   -2.6625    0.5447 N.ar    1  UNL1       -0.2218
      5 C           3.1329   -3.8416    1.1858 C.ar    1  UNL1        0.0759
      6 C           3.9136   -3.9295    2.2829 C.ar    1  UNL1       -0.0100
      7 C           4.4270   -2.7369    2.8326 C.ar    1  UNL1        0.0723
      8 C           5.2296   -2.3824    3.8847 C.ar    1  UNL1       -0.0084
      9 C           5.3110   -0.9613    3.8338 C.ar    1  UNL1        0.0938
     10 N           4.5862   -0.4737    2.8105 N.ar    1  UNL1       -0.1641
     11 N           4.0736   -1.5696    2.1997 N.ar    1  UNL1       -0.2081
     12 C           6.0574   -0.0855    4.7407 C.ar    1  UNL1        0.0021
     13 C           7.2150   -0.5450    5.3873 C.ar    1  UNL1       -0.0525
     14 C           7.9277    0.2909    6.2516 C.ar    1  UNL1       -0.0611
     15 C           7.4889    1.5926    6.4823 C.ar    1  UNL1       -0.0617
     16 C           6.3395    2.0611    5.8486 C.ar    1  UNL1       -0.0611
     17 C           5.6293    1.2278    4.9794 C.ar    1  UNL1       -0.0525
     18 C           2.5867   -5.0913    0.6351 C.ar    1  UNL1        0.0005
     19 C           1.3490   -5.5728    1.0814 C.ar    1  UNL1       -0.0526
     20 C           0.8482   -6.7816    0.5956 C.ar    1  UNL1       -0.0611
     21 C           1.5786   -7.5132   -0.3404 C.ar    1  UNL1       -0.0617
     22 C           2.8056   -7.0341   -0.7986 C.ar    1  UNL1       -0.0611
     23 C           3.3093   -5.8256   -0.3134 C.ar    1  UNL1       -0.0526
     24 H           2.4739   -1.3022   -1.7643 H       1  UNL1        0.0345
     25 H           0.9809   -1.1035   -0.8014 H       1  UNL1        0.0345
     26 H           1.6076    0.2420   -1.7690 H       1  UNL1        0.0345
     27 H           4.1448   -4.8834    2.7472 H       1  UNL1        0.0660
     28 H           5.6896   -3.0468    4.6027 H       1  UNL1        0.0661
     29 H           7.5884   -1.5505    5.2135 H       1  UNL1        0.0624
     30 H           8.8285   -0.0734    6.7383 H       1  UNL1        0.0618
     31 H           8.0449    2.2436    7.1519 H       1  UNL1        0.0618
     32 H           5.9954    3.0767    6.0262 H       1  UNL1        0.0618
     33 H           4.7350    1.6090    4.4896 H       1  UNL1        0.0624
     34 H           0.7719   -5.0066    1.8086 H       1  UNL1        0.0624
     35 H          -0.1114   -7.1517    0.9473 H       1  UNL1        0.0618
     36 H           1.1885   -8.4556   -0.7166 H       1  UNL1        0.0618
     37 H           3.3704   -7.6016   -1.5338 H       1  UNL1        0.0618
     38 H           4.2652   -5.4577   -0.6789 H       1  UNL1        0.0624
@<TRIPOS>BOND
     1     1    24    1
     2     1    25    1
     3     1    26    1
     4     2     1    1
     5     3     2    1
     6     4     3   ar
     7     5     4   ar
     8     6     5   ar
     9     6    27    1
    10     7     6   ar
    11     8     7   ar
    12     8    28    1
    13     9     8   ar
    14    10     9   ar
    15    11    10   ar
    16    11     3   ar
    17    11     7   ar
    18    12     9    1
    19    13    12   ar
    20    13    29    1
    21    14    13   ar
    22    14    30    1
    23    15    14   ar
    24    15    31    1
    25    16    15   ar
    26    16    32    1
    27    17    16   ar
    28    17    12   ar
    29    17    33    1
    30    18     5    1
    31    19    18   ar
    32    19    34    1
    33    20    19   ar
    34    20    35    1
    35    21    20   ar
    36    21    36    1
    37    22    21   ar
    38    22    37    1
    39    23    22   ar
    40    23    18   ar
    41    23    38    1
@<TRIPOS>MOLECULE
mol_380_akc_jejmech201608014
>365.sdf
 56 60 0 0 0
SMALL
GASTEIGER

@<TRIPOS>ATOM
      1 C           1.8969   -4.9262   -2.4782 C.3     1  UNL1       -0.0380
      2 C           3.0335   -5.5533   -1.7297 C.ar    1  UNL1       -0.0292
      3 C           3.7116   -4.9436   -0.6641 C.ar    1  UNL1        0.0365
      4 N           3.3198   -3.7121   -0.0825 N.am    1  UNL1       -0.2809
      5 C           2.0552   -3.5271    0.4792 C.2     1  UNL1        0.2624
      6 O           1.1625   -4.3641    0.5337 O.2     1  UNL1       -0.2696
      7 C           1.9015   -2.1708    1.1593 C.3     1  UNL1        0.0473
      8 N           0.6649   -1.3280    0.9037 N.4     1  UNL1        0.2517
      9 C          -0.5275   -1.5231    1.8395 C.3     1  UNL1       -0.0263
     10 C          -1.3013   -0.1924    1.9951 C.3     1  UNL1        0.0152
     11 C          -1.3874    0.5439    0.6969 C.ar    1  UNL1       -0.0083
     12 C          -0.6590    0.1840   -0.4226 C.ar    1  UNL1        0.0736
     13 N          -0.9554    1.0761   -1.4241 N.ar    1  UNL1       -0.3530
     14 C          -1.8651    2.0040   -0.9648 C.ar    1  UNL1        0.0471
     15 C          -2.4576    3.0794   -1.6352 C.ar    1  UNL1       -0.0378
     16 C          -3.3629    3.8666   -0.9195 C.ar    1  UNL1       -0.0598
     17 C          -3.6595    3.5890    0.4125 C.ar    1  UNL1       -0.0611
     18 C          -3.0596    2.5076    1.0683 C.ar    1  UNL1       -0.0523
     19 C          -2.1496    1.6959    0.3661 C.ar    1  UNL1        0.0035
     20 C           0.2795   -0.9904   -0.5431 C.3     1  UNL1        0.0468
     21 C          -0.2992   -2.0416   -1.4802 C.ar    1  UNL1        0.0062
     22 C          -0.9474   -3.2177   -1.0806 C.ar    1  UNL1       -0.0529
     23 C          -1.5167   -4.0971   -2.0087 C.ar    1  UNL1       -0.0613
     24 C          -1.4748   -3.8094   -3.3661 C.ar    1  UNL1       -0.0617
     25 C          -0.8472   -2.6490   -3.7986 C.ar    1  UNL1       -0.0613
     26 C          -0.2570   -1.7850   -2.8709 C.ar    1  UNL1       -0.0529
     27 C           4.8713   -5.5403   -0.1498 C.ar    1  UNL1       -0.0402
     28 C           5.2995   -6.7782   -0.6185 C.ar    1  UNL1       -0.0600
     29 C           4.5971   -7.4181   -1.6359 C.ar    1  UNL1       -0.0614
     30 C           3.4803   -6.8045   -2.1949 C.ar    1  UNL1       -0.0571
     31 H           1.7262   -3.8968   -2.1677 H       1  UNL1        0.0278
     32 H           0.9860   -5.5115   -2.3300 H       1  UNL1        0.0278
     33 H           2.1248   -4.8873   -3.5495 H       1  UNL1        0.0278
     34 H           4.0824   -3.2253    0.3769 H       1  UNL1        0.1550
     35 H           2.7486   -1.5263    0.8998 H       1  UNL1        0.0913
     36 H           1.9531   -2.3383    2.2425 H       1  UNL1        0.0913
     37 H           1.0017   -0.4097    1.2125 H       1  UNL1        0.2049
     38 H          -0.1495   -1.8508    2.8132 H       1  UNL1        0.0818
     39 H          -1.1758   -2.2995    1.4425 H       1  UNL1        0.0818
     40 H          -0.7754    0.4425    2.7192 H       1  UNL1        0.0366
     41 H          -2.3009   -0.3901    2.3979 H       1  UNL1        0.0366
     42 H          -0.6079    1.0677   -2.3724 H       1  UNL1        0.1658
     43 H          -2.2352    3.3010   -2.6744 H       1  UNL1        0.0638
     44 H          -3.8477    4.7075   -1.4123 H       1  UNL1        0.0618
     45 H          -4.3697    4.2155    0.9476 H       1  UNL1        0.0618
     46 H          -3.3099    2.3019    2.1058 H       1  UNL1        0.0624
     47 H           1.2243   -0.6373   -0.9805 H       1  UNL1        0.0972
     48 H          -1.0047   -3.5349   -0.0478 H       1  UNL1        0.0622
     49 H          -1.9754   -5.0224   -1.6642 H       1  UNL1        0.0618
     50 H          -1.9198   -4.4956   -4.0822 H       1  UNL1        0.0618
     51 H          -0.8178   -2.4179   -4.8614 H       1  UNL1        0.0618
     52 H           0.2303   -0.8940   -3.2619 H       1  UNL1        0.0622
     53 H           5.4330   -5.0800    0.6592 H       1  UNL1        0.0636
     54 H           6.1773   -7.2586   -0.1892 H       1  UNL1        0.0618
     55 H           4.9246   -8.3877   -2.0040 H       1  UNL1        0.0618
     56 H           2.9610   -7.2993   -3.0135 H       1  UNL1        0.0621
@<TRIPOS>UNITY_ATOM_ATTR
8 1
charge 1
@<TRIPOS>BOND
     1     1    31    1
     2     1    32    1
     3     1    33    1
     4     2     1    1
     5     3     2   ar
     6     4     3    1
     7     4    34    1
     8     5     4   am
     9     6     5    2
    10     7     5    1
    11     7    35    1
    12     7    36    1
    13     8     7    1
    14     8    37    1
    15     9     8    1
    16     9    38    1
    17     9    39    1
    18    10     9    1
    19    10    40    1
    20    10    41    1
    21    11    10    1
    22    12    11   ar
    23    13    12   ar
    24    13    42    1
    25    14    13   ar
    26    15    14   ar
    27    15    43    1
    28    16    15   ar
    29    16    44    1
    30    17    16   ar
    31    17    45    1
    32    18    17   ar
    33    18    46    1
    34    19    18   ar
    35    19    11   ar
    36    19    14   ar
    37    20    12    1
    38    20     8    1
    39    20    47    1
    40    21    20    1
    41    22    21   ar
    42    22    48    1
    43    23    22   ar
    44    23    49    1
    45    24    23   ar
    46    24    50    1
    47    25    24   ar
    48    25    51    1
    49    26    25   ar
    50    26    21   ar
    51    26    52    1
    52    27     3   ar
    53    27    53    1
    54    28    27   ar
    55    28    54    1
    56    29    28   ar
    57    29    55    1
    58    30    29   ar
    59    30     2   ar
    60    30    56    1
@<TRIPOS>MOLECULE
mol_381_akc_jejmech201607014
>366.sdf
 27 28 0 0 0
SMALL
GASTEIGER

@<TRIPOS>ATOM
      1 N           3.2940   -0.5882   -1.2410 N.am    1  UNL1       -0.3394
      2 C           2.5585    0.1895   -0.4099 C.2     1  UNL1        0.1473
      3 S           0.9039    0.1105   -0.3609 S.2     1  UNL1       -0.0174
      4 N           3.2787    1.0400    0.3842 N.am    1  UNL1       -0.2186
      5 N           4.6421    1.0548    0.3307 N.2     1  UNL1       -0.1885
      6 C           5.2254    1.8395    1.1812 C.2     1  UNL1        0.0533
      7 C           6.7037    1.9240    1.2379 C.ar    1  UNL1        0.0024
      8 C           7.4077    1.6145    0.0625 C.ar    1  UNL1       -0.0498
      9 C           8.7960    1.6454    0.0531 C.ar    1  UNL1       -0.0252
     10 C           9.4764    1.9751    1.2180 C.ar    1  UNL1        0.1311
     11 F          10.8189    1.9818    1.1828 F       1  UNL1       -0.2049
     12 C           8.8033    2.2863    2.4100 C.ar    1  UNL1        0.0179
     13 C           9.5282    2.5951    3.5753 C.ar    1  UNL1       -0.0513
     14 C           8.8774    2.8941    4.7695 C.ar    1  UNL1       -0.0611
     15 C           7.4906    2.8915    4.8155 C.ar    1  UNL1       -0.0611
     16 C           6.7535    2.5845    3.6686 C.ar    1  UNL1       -0.0533
     17 C           7.3846    2.2742    2.4375 C.ar    1  UNL1       -0.0065
     18 H           2.8666   -1.3021   -1.8125 H       1  UNL1        0.1440
     19 H           4.2991   -0.5507   -1.1227 H       1  UNL1        0.1440
     20 H           2.7747    1.6305    1.0382 H       1  UNL1        0.1762
     21 H           4.6431    2.4512    1.8905 H       1  UNL1        0.0851
     22 H           6.8753    1.3531   -0.8502 H       1  UNL1        0.0625
     23 H           9.3522    1.4089   -0.8486 H       1  UNL1        0.0646
     24 H          10.6172    2.5938    3.5558 H       1  UNL1        0.0624
     25 H           9.4553    3.1227    5.6613 H       1  UNL1        0.0618
     26 H           6.9779    3.1210    5.7469 H       1  UNL1        0.0618
     27 H           5.6712    2.5817    3.7650 H       1  UNL1        0.0624
@<TRIPOS>BOND
     1     1    18    1
     2     1    19    1
     3     2     1    1
     4     3     2    2
     5     4     2    1
     6     4    20    1
     7     5     4    1
     8     6     5    2
     9     6    21    1
    10     7     6    1
    11     8     7   ar
    12     8    22    1
    13     9     8   ar
    14     9    23    1
    15    10     9   ar
    16    11    10    1
    17    12    10   ar
    18    13    12   ar
    19    13    24    1
    20    14    13   ar
    21    14    25    1
    22    15    14   ar
    23    15    26    1
    24    16    15   ar
    25    16    27    1
    26    17    16   ar
    27    17     7   ar
    28    17    12   ar
@<TRIPOS>MOLECULE
mol_382_akc_jejmech201601028
>367.sdf
 73 76 0 0 0
SMALL
GASTEIGER

@<TRIPOS>ATOM
      1 C          -3.7836   12.0518    0.8110 C.3     1  UNL1        0.0788
      2 O          -3.5939   11.0700    1.8223 O.3     1  UNL1       -0.4951
      3 C          -2.3872   10.4267    1.8437 C.ar    1  UNL1        0.1201
      4 C          -1.3087   10.6707    0.9961 C.ar    1  UNL1       -0.0196
      5 C          -0.1157    9.9444    1.1345 C.ar    1  UNL1       -0.0536
      6 C           0.0160    8.9426    2.1072 C.ar    1  UNL1       -0.0301
      7 C           1.2825    8.1344    2.3155 C.3     1  UNL1        0.0369
      8 N           2.2657    8.2503    1.2565 N.am    1  UNL1       -0.3099
      9 C           3.6290    8.2293    1.4881 C.2     1  UNL1        0.2307
     10 O           4.1166    8.2103    2.6199 O.2     1  UNL1       -0.2741
     11 C           4.4883    8.2962    0.2003 C.3     1  UNL1        0.0924
     12 N           5.1680    9.5783    0.0276 N.am    1  UNL1       -0.2719
     13 C           6.3945    9.6403   -0.7834 C.3     1  UNL1        0.1282
     14 C           7.6704    9.2185    0.0046 C.2     1  UNL1        0.2385
     15 O           7.6968    8.3006    0.8167 O.2     1  UNL1       -0.2734
     16 N           8.7930    9.9664   -0.3525 N.am    1  UNL1       -0.3087
     17 C          10.1585    9.7608    0.1508 C.3     1  UNL1        0.0262
     18 C          10.6702    8.3638   -0.2258 C.3     1  UNL1       -0.0442
     19 C          11.0645   10.8100   -0.5220 C.3     1  UNL1       -0.0442
     20 C          10.2240    9.9680    1.6705 C.3     1  UNL1       -0.0442
     21 C           6.3042    9.0299   -2.1888 C.ar    1  UNL1       -0.0181
     22 C           5.1877    9.2954   -3.0020 C.ar    1  UNL1       -0.0550
     23 C           5.1923    8.9625   -4.3587 C.ar    1  UNL1       -0.0431
     24 C           6.3187    8.3741   -4.9257 C.ar    1  UNL1        0.0410
     25 CL          6.3689    8.0682   -6.6160 Cl      1  UNL1       -0.0835
     26 C           7.4177    8.0624   -4.1354 C.ar    1  UNL1       -0.0431
     27 C           7.4021    8.3715   -2.7741 C.ar    1  UNL1       -0.0550
     28 C           4.3818   10.7288    0.0693 C.2     1  UNL1        0.2642
     29 O           3.2152   10.7381   -0.3174 O.2     1  UNL1       -0.2683
     30 C           4.9669   11.8341    0.8014 C.ar    1  UNL1        0.1030
     31 C           6.2263   12.0095    1.3534 C.ar    1  UNL1       -0.0241
     32 C           6.0341   12.7483    2.5429 C.ar    1  UNL1        0.0004
     33 C           6.8037   12.8864    3.7096 C.ar    1  UNL1       -0.0526
     34 C           6.2156   13.4925    4.8204 C.ar    1  UNL1       -0.0611
     35 C           4.9337   14.0368    4.7412 C.ar    1  UNL1       -0.0598
     36 C           4.1865   13.9817    3.5577 C.ar    1  UNL1       -0.0378
     37 C           4.7520   13.2797    2.4920 C.ar    1  UNL1        0.0470
     38 N           4.2088   12.8803    1.2892 N.ar    1  UNL1       -0.3506
     39 C          -1.0772    8.7128    2.9596 C.ar    1  UNL1       -0.0536
     40 C          -2.2615    9.4477    2.8293 C.ar    1  UNL1       -0.0196
     41 H          -3.0703   12.8755    0.9186 H       1  UNL1        0.0660
     42 H          -3.7254   11.6052   -0.1871 H       1  UNL1        0.0660
     43 H          -4.7892   12.4671    0.9315 H       1  UNL1        0.0660
     44 H          -1.3537   11.4272    0.2195 H       1  UNL1        0.0654
     45 H           0.7107   10.1879    0.4714 H       1  UNL1        0.0622
     46 H           1.7285    8.3999    3.2791 H       1  UNL1        0.0512
     47 H           1.0104    7.0727    2.3449 H       1  UNL1        0.0512
     48 H           1.9308    8.3063    0.3035 H       1  UNL1        0.1491
     49 H           5.2383    7.5041    0.2950 H       1  UNL1        0.0560
     50 H           3.8704    8.0844   -0.6774 H       1  UNL1        0.0560
     51 H           6.5520   10.7041   -1.0158 H       1  UNL1        0.0648
     52 H           8.6831   10.6398   -1.1011 H       1  UNL1        0.1493
     53 H          10.6420    8.2132   -1.3110 H       1  UNL1        0.0250
     54 H          11.7062    8.2193    0.1041 H       1  UNL1        0.0250
     55 H          10.0673    7.5711    0.2277 H       1  UNL1        0.0250
     56 H          10.7424   11.8270   -0.2810 H       1  UNL1        0.0250
     57 H          12.1123   10.7025   -0.2010 H       1  UNL1        0.0250
     58 H          11.0390   10.7118   -1.6135 H       1  UNL1        0.0250
     59 H           9.8411   10.9569    1.9505 H       1  UNL1        0.0250
     60 H           9.6326    9.2235    2.2127 H       1  UNL1        0.0250
     61 H          11.2558    9.8938    2.0320 H       1  UNL1        0.0250
     62 H           4.3116    9.8017   -2.6007 H       1  UNL1        0.0621
     63 H           4.3280    9.2004   -4.9728 H       1  UNL1        0.0632
     64 H           8.3032    7.6075   -4.5715 H       1  UNL1        0.0632
     65 H           8.2912    8.1209   -2.1991 H       1  UNL1        0.0621
     66 H           7.1107   11.4236    1.1740 H       1  UNL1        0.0646
     67 H           7.7806   12.4197    3.7829 H       1  UNL1        0.0624
     68 H           6.7519   13.4987    5.7656 H       1  UNL1        0.0618
     69 H           4.4886   14.4796    5.6279 H       1  UNL1        0.0618
     70 H           3.1801   14.3789    3.5106 H       1  UNL1        0.0638
     71 H           3.2464   13.0421    1.0213 H       1  UNL1        0.1660
     72 H          -1.0140    7.9612    3.7452 H       1  UNL1        0.0622
     73 H          -3.0920    9.2581    3.5057 H       1  UNL1        0.0654
@<TRIPOS>BOND
     1     1    41    1
     2     1    42    1
     3     1    43    1
     4     2     1    1
     5     3     2    1
     6     4     3   ar
     7     4    44    1
     8     5     4   ar
     9     5    45    1
    10     6     5   ar
    11     7     6    1
    12     7    46    1
    13     7    47    1
    14     8     7    1
    15     8    48    1
    16     9     8   am
    17    10     9    2
    18    11     9    1
    19    11    49    1
    20    11    50    1
    21    12    11    1
    22    13    12    1
    23    13    51    1
    24    14    13    1
    25    15    14    2
    26    16    14   am
    27    16    52    1
    28    17    16    1
    29    18    17    1
    30    18    53    1
    31    18    54    1
    32    18    55    1
    33    19    17    1
    34    19    56    1
    35    19    57    1
    36    19    58    1
    37    20    17    1
    38    20    59    1
    39    20    60    1
    40    20    61    1
    41    21    13    1
    42    22    21   ar
    43    22    62    1
    44    23    22   ar
    45    23    63    1
    46    24    23   ar
    47    25    24    1
    48    26    24   ar
    49    26    64    1
    50    27    26   ar
    51    27    21   ar
    52    27    65    1
    53    28    12   am
    54    29    28    2
    55    30    28    1
    56    31    30   ar
    57    31    66    1
    58    32    31   ar
    59    33    32   ar
    60    33    67    1
    61    34    33   ar
    62    34    68    1
    63    35    34   ar
    64    35    69    1
    65    36    35   ar
    66    36    70    1
    67    37    36   ar
    68    37    32   ar
    69    38    37   ar
    70    38    30   ar
    71    38    71    1
    72    39     6   ar
    73    39    72    1
    74    40    39   ar
    75    40     3   ar
    76    40    73    1
@<TRIPOS>MOLECULE
mol_383_akc_jvetpar201601002
>368.sdf
 18 19 0 0 0
SMALL
GASTEIGER

@<TRIPOS>ATOM
      1 O          -1.7142    2.0429    0.0101 O.3     1  UNL1       -0.5046
      2 C          -1.3212    0.7236    0.0082 C.ar    1  UNL1        0.1427
      3 C           0.0497    0.4235    0.0061 C.ar    1  UNL1        0.1122
      4 N           0.9932    1.3950    0.0059 N.ar    1  UNL1       -0.2513
      5 C           2.2943    1.0377    0.0060 C.ar    1  UNL1        0.0284
      6 C           2.7308   -0.2711    0.0062 C.ar    1  UNL1       -0.0430
      7 C           1.7712   -1.2746    0.0048 C.ar    1  UNL1       -0.0510
      8 C           0.4089   -0.9431    0.0044 C.ar    1  UNL1        0.0040
      9 C          -0.5790   -1.9446    0.0032 C.ar    1  UNL1       -0.0523
     10 C          -1.9306   -1.6083    0.0058 C.ar    1  UNL1       -0.0576
     11 C          -2.3060   -0.2700    0.0092 C.ar    1  UNL1       -0.0180
     12 H          -2.6816    2.0917    0.0031 H       1  UNL1        0.2922
     13 H           2.9976    1.8652    0.0061 H       1  UNL1        0.0830
     14 H           3.7891   -0.5036    0.0075 H       1  UNL1        0.0633
     15 H           2.0900   -2.3138    0.0048 H       1  UNL1        0.0625
     16 H          -0.2972   -2.9955    0.0003 H       1  UNL1        0.0624
     17 H          -2.6869   -2.3890    0.0058 H       1  UNL1        0.0619
     18 H          -3.3609   -0.0146    0.0127 H       1  UNL1        0.0655
@<TRIPOS>BOND
     1     1    12    1
     2     2     1    1
     3     3     2   ar
     4     4     3   ar
     5     5     4   ar
     6     5    13    1
     7     6     5   ar
     8     6    14    1
     9     7     6   ar
    10     7    15    1
    11     8     7   ar
    12     8     3   ar
    13     9     8   ar
    14     9    16    1
    15    10     9   ar
    16    10    17    1
    17    11    10   ar
    18    11     2   ar
    19    11    18    1
@<TRIPOS>MOLECULE
mol_384_akc_molecules201219829
>369.sdf
 35 38 0 0 0
SMALL
GASTEIGER

@<TRIPOS>ATOM
      1 C           0.3791    0.8882    0.5760 C.3     1  UNL1        0.0242
      2 C           1.1944   -0.2154   -0.1137 C.3     1  UNL1       -0.0054
      3 C           2.6909   -0.0279    0.1231 C.3     1  UNL1       -0.0430
      4 C           3.1538    1.3443   -0.3474 C.3     1  UNL1       -0.0123
      5 C           2.3507    2.4635    0.2953 C.3     1  UNL1       -0.0315
      6 N           0.8731    2.2487    0.0528 N.4     1  UNL1        0.2409
      7 C           0.0641    3.4269    0.5879 C.3     1  UNL1       -0.0249
      8 C          -1.4397    3.1866    0.3725 C.3     1  UNL1        0.0217
      9 C          -1.8536    1.9085    1.1307 C.3     1  UNL1        0.0080
     10 C          -1.1770    0.7265    0.4319 C.3     1  UNL1        0.1814
     11 O          -1.5768   -0.5200    0.9947 O.3     1  UNL1       -0.4444
     12 C          -2.0965   -1.3108    0.0072 C.2     1  UNL1        0.3334
     13 O          -2.4241   -2.4735    0.1374 O.2     1  UNL1       -0.2456
     14 C          -2.2165   -0.5376   -1.2310 C.2     1  UNL1        0.0297
     15 C          -1.7271    0.6661   -0.9564 C.2     1  UNL1        0.0077
     16 C          -1.8821    1.8683   -1.7286 C.2     1  UNL1       -0.0579
     17 C          -1.7418    3.0578   -1.1175 C.2     1  UNL1       -0.0754
     18 H           0.6235    0.8763    1.6477 H       1  UNL1        0.0894
     19 H           1.0008   -0.2195   -1.1934 H       1  UNL1        0.0321
     20 H           0.9013   -1.1991    0.2700 H       1  UNL1        0.0321
     21 H           3.2519   -0.8089   -0.4019 H       1  UNL1        0.0269
     22 H           2.9097   -0.1423    1.1925 H       1  UNL1        0.0269
     23 H           4.2154    1.4747   -0.1077 H       1  UNL1        0.0317
     24 H           3.0650    1.4053   -1.4390 H       1  UNL1        0.0317
     25 H           2.6179    3.4291   -0.1460 H       1  UNL1        0.0814
     26 H           2.5046    2.5023    1.3791 H       1  UNL1        0.0814
     27 H           0.7358    2.2448   -0.9700 H       1  UNL1        0.2038
     28 H           0.4065    4.3178    0.0495 H       1  UNL1        0.0820
     29 H           0.3040    3.5286    1.6523 H       1  UNL1        0.0820
     30 H          -2.0061    4.0331    0.7771 H       1  UNL1        0.0396
     31 H          -1.5594    1.9574    2.1870 H       1  UNL1        0.0317
     32 H          -2.9463    1.7916    1.1343 H       1  UNL1        0.0317
     33 H          -2.7525   -0.8904   -2.0958 H       1  UNL1        0.0693
     34 H          -2.1810    1.8054   -2.7738 H       1  UNL1        0.0619
     35 H          -1.8952    3.9756   -1.6852 H       1  UNL1        0.0577
@<TRIPOS>UNITY_ATOM_ATTR
6 1
charge 1
@<TRIPOS>BOND
     1     1    18    1
     2     2     1    1
     3     2    19    1
     4     2    20    1
     5     3     2    1
     6     3    21    1
     7     3    22    1
     8     4     3    1
     9     4    23    1
    10     4    24    1
    11     5     4    1
    12     5    25    1
    13     5    26    1
    14     6     5    1
    15     6     1    1
    16     6    27    1
    17     7     6    1
    18     7    28    1
    19     7    29    1
    20     8     7    1
    21     8    30    1
    22     9     8    1
    23     9    31    1
    24     9    32    1
    25    10     9    1
    26    10     1    1
    27    11    10    1
    28    12    11    1
    29    13    12    2
    30    14    12    1
    31    14    33    1
    32    15    14    2
    33    15    10    1
    34    16    15    1
    35    16    34    1
    36    17    16    2
    37    17     8    1
    38    17    35    1
@<TRIPOS>MOLECULE
mol_385_akc_jejmech201510011
>370.sdf
 40 43 0 0 0
SMALL
GASTEIGER

@<TRIPOS>ATOM
      1 N           1.0387   -0.4704   -0.3951 N.1     1  UNL1       -0.1908
      2 C           2.1864   -0.3590   -0.3198 C.1     1  UNL1        0.1021
      3 C           3.6118   -0.2136   -0.1901 C.ar    1  UNL1        0.0877
      4 C           4.2573    1.0094   -0.3005 C.ar    1  UNL1        0.1190
      5 S           5.9545    0.7921   -0.1182 S.2     1  UNL1       -0.0727
      6 C           5.8277   -0.9021    0.0449 C.ar    1  UNL1       -0.0037
      7 C           4.5091   -1.3294    0.0086 C.ar    1  UNL1       -0.0177
      8 C           4.0638   -2.7698    0.1055 C.3     1  UNL1       -0.0256
      9 C           4.9520   -3.7109   -0.7142 C.3     1  UNL1       -0.0490
     10 C           6.2449   -4.1185   -0.0049 C.3     1  UNL1       -0.0524
     11 C           6.9280   -3.0441    0.8445 C.3     1  UNL1       -0.0486
     12 C           7.0997   -1.7029    0.1415 C.3     1  UNL1       -0.0211
     13 N           3.8525    2.2765   -0.5906 N.2     1  UNL1       -0.2451
     14 C           2.7241    2.6931   -0.1257 C.2     1  UNL1        0.0522
     15 C           2.2970    4.0242   -0.4408 C.ar    1  UNL1        0.0586
     16 C           1.0455    4.5963   -0.3227 C.ar    1  UNL1       -0.0278
     17 C           1.1944    5.9978   -0.5108 C.ar    1  UNL1        0.0003
     18 C           0.3216    7.0923   -0.3919 C.ar    1  UNL1       -0.0526
     19 C           0.8658    8.3799   -0.3539 C.ar    1  UNL1       -0.0611
     20 C           2.2315    8.5846   -0.5507 C.ar    1  UNL1       -0.0598
     21 C           3.0875    7.5187   -0.8416 C.ar    1  UNL1       -0.0378
     22 C           2.5421    6.2336   -0.7767 C.ar    1  UNL1        0.0469
     23 N           3.1420    5.0044   -0.9066 N.ar    1  UNL1       -0.3534
     24 H           3.0461   -2.8644   -0.2863 H       1  UNL1        0.0314
     25 H           4.0238   -3.0787    1.1528 H       1  UNL1        0.0314
     26 H           5.1906   -3.2524   -1.6813 H       1  UNL1        0.0268
     27 H           4.3889   -4.6216   -0.9398 H       1  UNL1        0.0268
     28 H           6.0316   -4.9763    0.6463 H       1  UNL1        0.0265
     29 H           6.9472   -4.4844   -0.7638 H       1  UNL1        0.0265
     30 H           6.3867   -2.9125    1.7875 H       1  UNL1        0.0269
     31 H           7.9229   -3.4250    1.1185 H       1  UNL1        0.0269
     32 H           7.5076   -1.8531   -0.8658 H       1  UNL1        0.0318
     33 H           7.8462   -1.1250    0.7028 H       1  UNL1        0.0318
     34 H           2.0623    2.1010    0.5310 H       1  UNL1        0.0851
     35 H           0.1421    4.0879   -0.0140 H       1  UNL1        0.0645
     36 H          -0.7438    6.9394   -0.2462 H       1  UNL1        0.0624
     37 H           0.2187    9.2257   -0.1371 H       1  UNL1        0.0618
     38 H           2.6399    9.5891   -0.4708 H       1  UNL1        0.0618
     39 H           4.1428    7.6813   -1.0313 H       1  UNL1        0.0638
     40 H           4.1171    4.8466   -1.1222 H       1  UNL1        0.1659
@<TRIPOS>BOND
     1     2     1    3
     2     3     2    1
     3     4     3   ar
     4     5     4   ar
     5     6     5   ar
     6     7     6   ar
     7     7     3   ar
     8     8     7    1
     9     8    24    1
    10     8    25    1
    11     9     8    1
    12     9    26    1
    13     9    27    1
    14    10     9    1
    15    10    28    1
    16    10    29    1
    17    11    10    1
    18    11    30    1
    19    11    31    1
    20    12    11    1
    21    12     6    1
    22    12    32    1
    23    12    33    1
    24    13     4    1
    25    14    13    2
    26    14    34    1
    27    15    14    1
    28    16    15   ar
    29    16    35    1
    30    17    16   ar
    31    18    17   ar
    32    18    36    1
    33    19    18   ar
    34    19    37    1
    35    20    19   ar
    36    20    38    1
    37    21    20   ar
    38    21    39    1
    39    22    21   ar
    40    22    17   ar
    41    23    22   ar
    42    23    15   ar
    43    23    40    1
@<TRIPOS>MOLECULE
mol_386_akc_jejmech201510011
>371.sdf
 37 40 0 0 0
SMALL
GASTEIGER

@<TRIPOS>ATOM
      1 BR          2.1447   -0.6602    3.3891 Br      1  UNL1       -0.0503
      2 C           0.5679   -0.9330    2.3780 C.ar    1  UNL1        0.0186
      3 C           0.5520   -0.5914    1.0266 C.ar    1  UNL1       -0.0458
      4 C          -0.5984   -0.7841    0.2545 C.ar    1  UNL1       -0.0367
      5 C          -1.7210   -1.3257    0.8890 C.ar    1  UNL1        0.0470
      6 N          -2.9690   -1.6205    0.3894 N.ar    1  UNL1       -0.3534
      7 C          -3.7798   -2.1196    1.3794 C.ar    1  UNL1        0.0586
      8 C          -5.1561   -2.4904    1.1999 C.2     1  UNL1        0.0522
      9 N          -5.7288   -2.3943    0.0426 N.2     1  UNL1       -0.2451
     10 C          -7.0440   -2.7739   -0.0439 C.ar    1  UNL1        0.1190
     11 C          -8.0260   -2.2850   -0.9041 C.ar    1  UNL1        0.0877
     12 C          -7.7717   -1.2383   -1.8556 C.1     1  UNL1        0.1021
     13 N          -7.6298   -0.3918   -2.6456 N.1     1  UNL1       -0.1908
     14 C          -9.3009   -2.9337   -0.7372 C.ar    1  UNL1       -0.0177
     15 C          -9.2391   -3.9139    0.2301 C.ar    1  UNL1       -0.0037
     16 C         -10.3770   -4.7737    0.6806 C.3     1  UNL1       -0.0210
     17 C         -11.5150   -4.7344   -0.3457 C.3     1  UNL1       -0.0483
     18 C         -11.7934   -3.3066   -0.8363 C.3     1  UNL1       -0.0487
     19 C         -10.5634   -2.6733   -1.5097 C.3     1  UNL1       -0.0256
     20 S          -7.6969   -4.0769    0.8983 S.2     1  UNL1       -0.0727
     21 C          -3.0217   -2.1777    2.5334 C.ar    1  UNL1       -0.0277
     22 C          -1.7264   -1.6725    2.2402 C.ar    1  UNL1        0.0013
     23 C          -0.5602   -1.4745    3.0042 C.ar    1  UNL1       -0.0386
     24 H           1.4375   -0.1716    0.5574 H       1  UNL1        0.0629
     25 H          -0.6136   -0.5189   -0.7974 H       1  UNL1        0.0639
     26 H          -3.2667   -1.4784   -0.5669 H       1  UNL1        0.1659
     27 H          -5.6674   -2.8474    2.1114 H       1  UNL1        0.0851
     28 H         -10.0520   -5.8103    0.8244 H       1  UNL1        0.0318
     29 H         -10.7407   -4.4054    1.6476 H       1  UNL1        0.0318
     30 H         -12.4203   -5.1624    0.1006 H       1  UNL1        0.0269
     31 H         -11.2531   -5.3647   -1.2055 H       1  UNL1        0.0269
     32 H         -12.1015   -2.6900    0.0177 H       1  UNL1        0.0268
     33 H         -12.6308   -3.3147   -1.5434 H       1  UNL1        0.0268
     34 H         -10.7298   -1.5966   -1.6222 H       1  UNL1        0.0314
     35 H         -10.4461   -3.0965   -2.5151 H       1  UNL1        0.0314
     36 H          -3.3643   -2.5342    3.4969 H       1  UNL1        0.0645
     37 H          -0.5429   -1.7374    4.0553 H       1  UNL1        0.0635
@<TRIPOS>BOND
     1     2     1    1
     2     3     2   ar
     3     3    24    1
     4     4     3   ar
     5     4    25    1
     6     5     4   ar
     7     6     5   ar
     8     6    26    1
     9     7     6   ar
    10     8     7    1
    11     8    27    1
    12     9     8    2
    13    10     9    1
    14    11    10   ar
    15    12    11    1
    16    13    12    3
    17    14    11   ar
    18    15    14   ar
    19    16    15    1
    20    16    28    1
    21    16    29    1
    22    17    16    1
    23    17    30    1
    24    17    31    1
    25    18    17    1
    26    18    32    1
    27    18    33    1
    28    19    18    1
    29    19    14    1
    30    19    34    1
    31    19    35    1
    32    20    15   ar
    33    20    10   ar
    34    21     7   ar
    35    21    36    1
    36    22    21   ar
    37    22     5   ar
    38    23    22   ar
    39    23     2   ar
    40    23    37    1
@<TRIPOS>MOLECULE
mol_387_akc_jbiopha201510028
>372.sdf
 26 27 0 0 0
SMALL
GASTEIGER

@<TRIPOS>ATOM
      1 C           0.8699    2.6480    0.4474 C.3     1  UNL1       -0.0649
      2 C           2.3895    2.6757    0.4154 C.3     1  UNL1       -0.0505
      3 C           2.9538    1.3993   -0.2103 C.3     1  UNL1       -0.0106
      4 C           4.4610    1.4112   -0.2526 C.ar    1  UNL1        0.0420
      5 N           5.1083    1.5087    0.9347 N.ar    1  UNL1       -0.2516
      6 C           6.4528    1.5061    0.9420 C.ar    1  UNL1        0.0713
      7 C           7.1311    1.6176    2.1485 C.ar    1  UNL1       -0.0357
      8 C           8.5279    1.6143    2.2101 C.ar    1  UNL1       -0.0597
      9 C           9.2720    1.4971    1.0416 C.ar    1  UNL1       -0.0611
     10 C           8.6170    1.3870   -0.1832 C.ar    1  UNL1       -0.0526
     11 C           7.2126    1.3925   -0.2396 C.ar    1  UNL1        0.0004
     12 C           6.5236    1.2857   -1.4528 C.ar    1  UNL1       -0.0509
     13 C           5.1336    1.2932   -1.4621 C.ar    1  UNL1       -0.0398
     14 H           0.4830    3.5666    0.8988 H       1  UNL1        0.0230
     15 H           0.4581    2.5653   -0.5634 H       1  UNL1        0.0230
     16 H           0.5072    1.8000    1.0372 H       1  UNL1        0.0230
     17 H           2.7249    3.5520   -0.1527 H       1  UNL1        0.0266
     18 H           2.7643    2.7984    1.4386 H       1  UNL1        0.0266
     19 H           2.6328    0.5211    0.3632 H       1  UNL1        0.0328
     20 H           2.5488    1.2802   -1.2228 H       1  UNL1        0.0328
     21 H           6.5544    1.7097    3.0657 H       1  UNL1        0.0639
     22 H           9.0274    1.7028    3.1713 H       1  UNL1        0.0618
     23 H          10.3579    1.4912    1.0829 H       1  UNL1        0.0618
     24 H           9.2052    1.2965   -1.0931 H       1  UNL1        0.0624
     25 H           7.0631    1.1941   -2.3917 H       1  UNL1        0.0625
     26 H           4.5938    1.2072   -2.3988 H       1  UNL1        0.0636
@<TRIPOS>BOND
     1     1    14    1
     2     1    15    1
     3     1    16    1
     4     2     1    1
     5     2    17    1
     6     2    18    1
     7     3     2    1
     8     3    19    1
     9     3    20    1
    10     4     3    1
    11     5     4   ar
    12     6     5   ar
    13     7     6   ar
    14     7    21    1
    15     8     7   ar
    16     8    22    1
    17     9     8   ar
    18     9    23    1
    19    10     9   ar
    20    10    24    1
    21    11    10   ar
    22    11     6   ar
    23    12    11   ar
    24    12    25    1
    25    13    12   ar
    26    13     4   ar
    27    13    26    1
@<TRIPOS>MOLECULE
mol_388_akc_jbmcl201510062
>373.sdf
 71 74 0 0 0
SMALL
GASTEIGER

@<TRIPOS>ATOM
      1 C           1.3030   -0.3211   -1.8868 C.3     1  UNL1       -0.0587
      2 C           2.0527   -0.0519   -0.5488 C.3     1  UNL1       -0.0218
      3 C           3.1215    1.0511   -0.7516 C.3     1  UNL1       -0.0468
      4 C           2.7579    2.5147   -0.5744 C.3     1  UNL1       -0.0516
      5 C           1.8014    2.7864    0.5586 C.3     1  UNL1       -0.0390
      6 C           0.5403    1.8836    0.5319 C.3     1  UNL1        0.0475
      7 C          -0.2987    2.1443   -0.7365 C.3     1  UNL1       -0.0510
      8 C           1.0869    0.3897    0.6428 C.3     1  UNL1       -0.0211
      9 C           0.0379   -0.7050    0.9337 C.3     1  UNL1       -0.0451
     10 C           0.7064   -2.0592    1.2318 C.3     1  UNL1       -0.0314
     11 C           1.6725   -2.4708    0.1455 C.2     1  UNL1       -0.0730
     12 C           1.4936   -3.6415   -0.4952 C.2     1  UNL1       -0.0992
     13 C           2.7739   -1.4335   -0.1595 C.3     1  UNL1       -0.0142
     14 C           3.8365   -1.9894   -1.1766 C.3     1  UNL1       -0.0419
     15 C           5.1513   -1.2183   -1.3612 C.3     1  UNL1       -0.0241
     16 C           5.9827   -1.7376   -2.4833 C.ar    1  UNL1       -0.0097
     17 C           5.7961   -1.4992   -3.8316 C.ar    1  UNL1        0.0948
     18 O           6.7784   -2.0829   -4.5690 O.2     1  UNL1       -0.4708
     19 C           7.6041   -2.6991   -3.6897 C.ar    1  UNL1        0.0919
     20 C           7.1640   -2.5232   -2.4023 C.ar    1  UNL1       -0.0208
     21 C          -0.2990    2.3634    1.7522 C.2     1  UNL1        0.2192
     22 O          -0.5156    1.6759    2.7438 O.2     1  UNL1       -0.2752
     23 N          -0.7372    3.6799    1.6596 N.am    1  UNL1       -0.3146
     24 C          -1.3818    4.3406    2.7688 C.3     1  UNL1        0.0144
     25 C          -1.7989    5.8048    2.5166 C.3     1  UNL1       -0.0254
     26 C          -2.8910    5.9728    1.4392 C.3     1  UNL1       -0.0488
     27 C          -2.3777    6.2402    0.0297 C.3     1  UNL1       -0.0528
     28 C          -1.3496    7.3620    0.0040 C.3     1  UNL1       -0.0530
     29 C          -0.1703    7.0274    0.9044 C.3     1  UNL1       -0.0528
     30 C          -0.6088    6.7698    2.3429 C.3     1  UNL1       -0.0488
     31 H           1.9990   -0.6148   -2.6779 H       1  UNL1        0.0235
     32 H           0.5647   -1.1253   -1.7991 H       1  UNL1        0.0235
     33 H           0.7752    0.5324   -2.2921 H       1  UNL1        0.0235
     34 H           3.5111    0.9840   -1.7709 H       1  UNL1        0.0271
     35 H           3.9415    0.8623   -0.0473 H       1  UNL1        0.0271
     36 H           2.3583    2.9157   -1.5121 H       1  UNL1        0.0266
     37 H           3.6825    3.0781   -0.3910 H       1  UNL1        0.0266
     38 H           1.5476    3.8508    0.5288 H       1  UNL1        0.0275
     39 H           2.3242    2.6430    1.5169 H       1  UNL1        0.0275
     40 H          -1.0332    1.3505   -0.8999 H       1  UNL1        0.0240
     41 H          -0.8611    3.0814   -0.7059 H       1  UNL1        0.0240
     42 H           0.3168    2.2519   -1.6307 H       1  UNL1        0.0240
     43 H           1.7202    0.3976    1.5458 H       1  UNL1        0.0316
     44 H          -0.6692   -0.8066    0.1059 H       1  UNL1        0.0271
     45 H          -0.5592   -0.4568    1.8159 H       1  UNL1        0.0271
     46 H          -0.0781   -2.8135    1.3724 H       1  UNL1        0.0310
     47 H           1.2520   -2.0062    2.1821 H       1  UNL1        0.0310
     48 H           2.1280   -3.9753   -1.3091 H       1  UNL1        0.0534
     49 H           0.6763   -4.3100   -0.2376 H       1  UNL1        0.0534
     50 H           3.3158   -1.2751    0.7851 H       1  UNL1        0.0351
     51 H           4.1372   -2.9904   -0.8336 H       1  UNL1        0.0274
     52 H           3.3661   -2.1496   -2.1551 H       1  UNL1        0.0274
     53 H           4.9993   -0.1723   -1.6112 H       1  UNL1        0.0314
     54 H           5.7188   -1.2242   -0.4252 H       1  UNL1        0.0314
     55 H           5.0602   -0.9399   -4.3994 H       1  UNL1        0.1032
     56 H           8.4561   -3.2053   -4.1292 H       1  UNL1        0.1029
     57 H           7.6407   -2.8960   -1.5077 H       1  UNL1        0.0652
     58 H          -0.4166    4.2513    0.8977 H       1  UNL1        0.1487
     59 H          -2.2606    3.7412    3.0451 H       1  UNL1        0.0465
     60 H          -0.6903    4.2933    3.6187 H       1  UNL1        0.0465
     61 H          -2.2752    6.0939    3.4699 H       1  UNL1        0.0316
     62 H          -3.5600    5.1089    1.4347 H       1  UNL1        0.0268
     63 H          -3.5081    6.8342    1.7333 H       1  UNL1        0.0268
     64 H          -1.9421    5.3288   -0.3934 H       1  UNL1        0.0265
     65 H          -3.2228    6.5094   -0.6146 H       1  UNL1        0.0265
     66 H          -1.0006    7.5231   -1.0226 H       1  UNL1        0.0265
     67 H          -1.8141    8.2997    0.3325 H       1  UNL1        0.0265
     68 H           0.3646    6.1600    0.5052 H       1  UNL1        0.0265
     69 H           0.5440    7.8602    0.8886 H       1  UNL1        0.0265
     70 H          -0.9035    7.7380    2.7708 H       1  UNL1        0.0268
     71 H           0.2516    6.4324    2.9323 H       1  UNL1        0.0268
@<TRIPOS>BOND
     1     1    31    1
     2     1    32    1
     3     1    33    1
     4     2     1    1
     5     3     2    1
     6     3    34    1
     7     3    35    1
     8     4     3    1
     9     4    36    1
    10     4    37    1
    11     5     4    1
    12     5    38    1
    13     5    39    1
    14     6     5    1
    15     6     7    1
    16     7    40    1
    17     7    41    1
    18     7    42    1
    19     8     6    1
    20     8     2    1
    21     8    43    1
    22     9     8    1
    23     9    44    1
    24     9    45    1
    25    10     9    1
    26    10    46    1
    27    10    47    1
    28    11    10    1
    29    12    11    2
    30    12    48    1
    31    12    49    1
    32    13    11    1
    33    13     2    1
    34    13    50    1
    35    14    13    1
    36    14    51    1
    37    14    52    1
    38    15    14    1
    39    15    53    1
    40    15    54    1
    41    16    15    1
    42    17    16   ar
    43    17    55    1
    44    18    17   ar
    45    19    18   ar
    46    19    56    1
    47    20    19   ar
    48    20    16   ar
    49    20    57    1
    50    21     6    1
    51    22    21    2
    52    23    21   am
    53    23    58    1
    54    24    23    1
    55    24    59    1
    56    24    60    1
    57    25    24    1
    58    25    61    1
    59    26    25    1
    60    26    62    1
    61    26    63    1
    62    27    26    1
    63    27    64    1
    64    27    65    1
    65    28    27    1
    66    28    66    1
    67    28    67    1
    68    29    28    1
    69    29    68    1
    70    29    69    1
    71    30    29    1
    72    30    25    1
    73    30    70    1
    74    30    71    1
