@<TRIPOS>MOLECULE
mol_585_akc_147864192012696254
>567.sdf
 35 36 0 0 0
SMALL
GASTEIGER

@<TRIPOS>ATOM
      1 C           9.2014    1.5315   -0.3895 C.3     1  UNL1       -0.0618
      2 C           8.4378    0.8347    0.7256 C.3     1  UNL1       -0.0375
      3 C           7.0359    0.4825    0.3012 C.2     1  UNL1       -0.0850
      4 C           6.5267   -0.7623    0.2393 C.2     1  UNL1       -0.0511
      5 C           7.2930   -1.9924    0.6223 C.3     1  UNL1        0.1078
      6 O           6.4795   -3.1621    0.4987 O.3     1  UNL1       -0.4872
      7 C           7.1298   -4.3454    0.7729 C.ar    1  UNL1        0.1324
      8 C           8.1169   -4.4208    1.7711 C.ar    1  UNL1       -0.0192
      9 C           8.7540   -5.6220    2.0663 C.ar    1  UNL1       -0.0576
     10 C           8.3913   -6.7753    1.3868 C.ar    1  UNL1       -0.0500
     11 C           7.3849   -6.7290    0.4115 C.ar    1  UNL1        0.0362
     12 C           6.7505   -5.5195    0.0906 C.ar    1  UNL1        0.0740
     13 C           5.7157   -5.5261   -0.9762 C.2     1  UNL1        0.1906
     14 O           5.1875   -4.5131   -1.4200 O.2     1  UNL1       -0.2871
     15 C           5.3120   -6.8300   -1.5447 C.2     1  UNL1       -0.0077
     16 C           5.8976   -7.9877   -1.2178 C.2     1  UNL1        0.0004
     17 C           5.4991   -9.3128   -1.7867 C.3     1  UNL1       -0.0359
     18 C           7.0156   -7.9987   -0.2460 C.2     1  UNL1        0.1898
     19 O           7.6080   -9.0395    0.0176 O.2     1  UNL1       -0.2870
     20 H          10.2359    1.7145   -0.0807 H       1  UNL1        0.0233
     21 H           9.2238    0.9203   -1.2981 H       1  UNL1        0.0233
     22 H           8.7466    2.4966   -0.6351 H       1  UNL1        0.0233
     23 H           9.0040   -0.0524    1.0292 H       1  UNL1        0.0305
     24 H           8.3918    1.4887    1.6036 H       1  UNL1        0.0305
     25 H           6.3925    1.3193    0.0333 H       1  UNL1        0.0570
     26 H           5.4948   -0.9006   -0.0780 H       1  UNL1        0.0602
     27 H           8.1703   -2.0929   -0.0280 H       1  UNL1        0.0742
     28 H           7.5892   -1.8556    1.6668 H       1  UNL1        0.0742
     29 H           8.4052   -3.5586    2.3627 H       1  UNL1        0.0654
     30 H           9.5226   -5.6593    2.8353 H       1  UNL1        0.0619
     31 H           8.8850   -7.7156    1.6289 H       1  UNL1        0.0625
     32 H           4.5025   -6.7865   -2.2662 H       1  UNL1        0.0660
     33 H           6.3336   -9.7649   -2.3329 H       1  UNL1        0.0279
     34 H           5.1988   -9.9968   -0.9856 H       1  UNL1        0.0279
     35 H           4.6557   -9.2246   -2.4793 H       1  UNL1        0.0279
@<TRIPOS>BOND
     1     1    20    1
     2     1    21    1
     3     1    22    1
     4     2     1    1
     5     2    23    1
     6     2    24    1
     7     3     2    1
     8     3    25    1
     9     4     3    2
    10     4    26    1
    11     5     4    1
    12     5    27    1
    13     5    28    1
    14     6     5    1
    15     7     6    1
    16     8     7   ar
    17     8    29    1
    18     9     8   ar
    19     9    30    1
    20    10     9   ar
    21    10    31    1
    22    11    10   ar
    23    12    11   ar
    24    12     7   ar
    25    13    12    1
    26    14    13    2
    27    15    13    1
    28    15    32    1
    29    16    15    2
    30    17    16    1
    31    17    33    1
    32    17    34    1
    33    17    35    1
    34    18    16    1
    35    18    11    1
    36    19    18    2
@<TRIPOS>MOLECULE
mol_586_akc_jm900564x
>568.sdf
 58 61 0 0 0
SMALL
GASTEIGER

@<TRIPOS>ATOM
      1 N          11.3199    6.0620   23.1502 N.pl3   1  UNL1       -0.2430
      2 C          11.2503    5.4562   21.9175 C.2     1  UNL1        0.3624
      3 N          11.3731    4.1669   21.7706 N.2     1  UNL1        0.1514
      4 O          11.5764    3.5310   23.0057 O.2     1  UNL1       -0.3111
      5 C          11.0388    6.2920   20.6961 C.ar    1  UNL1        0.0696
      6 C          11.4138    5.7893   19.4469 C.ar    1  UNL1       -0.0433
      7 C          11.2079    6.5437   18.2883 C.ar    1  UNL1       -0.0191
      8 C          10.6213    7.8087   18.3639 C.ar    1  UNL1        0.1205
      9 O          10.3673    8.6336   17.2975 O.3     1  UNL1       -0.4920
     10 C          10.7247    8.1200   16.0102 C.3     1  UNL1        0.0896
     11 C          10.3718    9.1543   14.9399 C.3     1  UNL1       -0.0186
     12 C          10.7565    8.7205   13.5189 C.3     1  UNL1       -0.0484
     13 C          10.0588    7.4582   13.0041 C.3     1  UNL1       -0.0349
     14 C           8.5571    7.6253   12.7171 C.3     1  UNL1        0.0233
     15 N           7.8342    6.4075   13.0776 N.ar    1  UNL1       -0.3460
     16 C           7.1758    6.2771   14.2794 C.ar    1  UNL1        0.0129
     17 C           7.2397    4.9484   14.6308 C.ar    1  UNL1        0.0021
     18 C           6.9736    4.3944   15.9196 C.2     1  UNL1       -0.0262
     19 C           6.2571    4.8911   16.9291 C.2     1  UNL1        0.0981
     20 N           5.4981    6.0231   17.0034 N.am    1  UNL1       -0.2648
     21 C           4.9552    6.1378   18.2689 C.2     1  UNL1        0.3105
     22 O           4.2145    7.0307   18.6520 O.2     1  UNL1       -0.2521
     23 N           5.3826    5.0700   19.0103 N.am    1  UNL1       -0.2349
     24 C           6.1708    4.2336   18.2687 C.2     1  UNL1        0.2657
     25 O           6.6818    3.1879   18.6122 O.2     1  UNL1       -0.2684
     26 C           7.7449    4.2289   13.5012 C.ar    1  UNL1        0.0071
     27 C           8.0275    2.8697   13.2483 C.ar    1  UNL1       -0.0520
     28 C           8.5093    2.4830   11.9951 C.ar    1  UNL1       -0.0611
     29 C           8.7138    3.4283   10.9948 C.ar    1  UNL1       -0.0598
     30 C           8.4884    4.7891   11.2311 C.ar    1  UNL1       -0.0376
     31 C           8.0160    5.1673   12.4982 C.ar    1  UNL1        0.0496
     32 C          10.2449    8.3099   19.6144 C.ar    1  UNL1       -0.0191
     33 C          10.4523    7.5586   20.7792 C.ar    1  UNL1       -0.0433
     34 H          11.6671    5.3891   23.8308 H       1  UNL1        0.2886
     35 H          11.8431    6.9287   23.1729 H       1  UNL1        0.2886
     36 H          11.4975    2.5905   22.7582 H       1  UNL1        0.3605
     37 H          11.8696    4.8049   19.3657 H       1  UNL1        0.0627
     38 H          11.5152    6.1045   17.3455 H       1  UNL1        0.0654
     39 H          11.8040    7.9274   15.9761 H       1  UNL1        0.0696
     40 H          10.1672    7.1957   15.8273 H       1  UNL1        0.0696
     41 H           9.3062    9.3996   15.0010 H       1  UNL1        0.0298
     42 H          10.8984   10.0889   15.1747 H       1  UNL1        0.0298
     43 H          10.5640    9.5472   12.8258 H       1  UNL1        0.0267
     44 H          11.8394    8.5414   13.4962 H       1  UNL1        0.0267
     45 H          10.5484    7.1479   12.0722 H       1  UNL1        0.0282
     46 H          10.2407    6.6378   13.7089 H       1  UNL1        0.0282
     47 H           8.1213    8.4411   13.3031 H       1  UNL1        0.0492
     48 H           8.3636    7.8343   11.6605 H       1  UNL1        0.0492
     49 H           6.8851    7.1607   14.8297 H       1  UNL1        0.0815
     50 H           7.4685    3.4412   16.1165 H       1  UNL1        0.0644
     51 H           5.3040    6.6664   16.2535 H       1  UNL1        0.1565
     52 H           5.1361    4.9119   19.9714 H       1  UNL1        0.1594
     53 H           7.8717    2.1228   14.0211 H       1  UNL1        0.0624
     54 H           8.7210    1.4338   11.8043 H       1  UNL1        0.0618
     55 H           9.0709    3.1041   10.0198 H       1  UNL1        0.0618
     56 H           8.6784    5.5208   10.4527 H       1  UNL1        0.0638
     57 H           9.7755    9.2885   19.6839 H       1  UNL1        0.0654
     58 H          10.1271    7.9590   21.7352 H       1  UNL1        0.0627
@<TRIPOS>BOND
     1     1    34    1
     2     1    35    1
     3     2     1    1
     4     3     2    2
     5     4     3    1
     6     4    36    1
     7     5     2    1
     8     6     5   ar
     9     6    37    1
    10     7     6   ar
    11     7    38    1
    12     8     7   ar
    13     9     8    1
    14    10     9    1
    15    10    39    1
    16    10    40    1
    17    11    10    1
    18    11    41    1
    19    11    42    1
    20    12    11    1
    21    12    43    1
    22    12    44    1
    23    13    12    1
    24    13    45    1
    25    13    46    1
    26    14    13    1
    27    14    47    1
    28    14    48    1
    29    15    14    1
    30    16    15   ar
    31    16    49    1
    32    17    16   ar
    33    18    17    1
    34    18    50    1
    35    19    18    2
    36    20    19    1
    37    20    51    1
    38    21    20   am
    39    22    21    2
    40    23    21   am
    41    23    52    1
    42    24    23   am
    43    24    19    1
    44    25    24    2
    45    26    17   ar
    46    27    26   ar
    47    27    53    1
    48    28    27   ar
    49    28    54    1
    50    29    28   ar
    51    29    55    1
    52    30    29   ar
    53    30    56    1
    54    31    30   ar
    55    31    15   ar
    56    31    26   ar
    57    32     8   ar
    58    32    57    1
    59    33    32   ar
    60    33     5   ar
    61    33    58    1
@<TRIPOS>MOLECULE
mol_588_akc_jmm0011155_0
>570.sdf
 13 12 0 0 0
SMALL
GASTEIGER

@<TRIPOS>ATOM
      1 O           3.2700    0.4107   -1.2004 O.co2   1  UNL1       -0.7245
      2 S           2.7251   -0.0298    0.0804 S.3     1  UNL1       -0.0793
      3 O           1.2766    0.1115    0.2146 O.2     1  UNL1       -0.1853
      4 O           3.2650   -1.2902    0.5851 O.2     1  UNL1       -0.1853
      5 C           3.3447    1.1690    1.2329 C.3     1  UNL1        0.0684
      6 C           4.8635    1.1792    1.2531 C.3     1  UNL1        0.0297
      7 N           5.3510    2.1456    2.2545 N.3     1  UNL1       -0.2315
      8 CL          7.1134    2.2122    2.3108 Cl      1  UNL1       -0.0241
      9 H           2.9455    2.1460    0.9397 H       1  UNL1        0.0503
     10 H           2.9376    0.9088    2.2162 H       1  UNL1        0.0503
     11 H           5.2482    0.1817    1.4974 H       1  UNL1        0.0453
     12 H           5.2514    1.4498    0.2644 H       1  UNL1        0.0453
     13 H           4.9778    1.8777    3.1643 H       1  UNL1        0.1409
@<TRIPOS>UNITY_ATOM_ATTR
1 1
charge -1
@<TRIPOS>BOND
     1     2     1    1
     2     3     2    2
     3     4     2    2
     4     5     2    1
     5     5     9    1
     6     5    10    1
     7     6     5    1
     8     6    11    1
     9     6    12    1
    10     7     6    1
    11     7    13    1
    12     8     7    1
@<TRIPOS>MOLECULE
mol_589_akc_s00284_009_9447_2
>571.sdf
 49 51 0 0 0
SMALL
GASTEIGER

@<TRIPOS>ATOM
      1 C           1.4605   -0.4985    1.0925 C.3     1  UNL1       -0.0612
      2 C           2.3862   -0.1180   -0.0590 C.3     1  UNL1       -0.0287
      3 C           2.9782    1.2636    0.1113 C.ar    1  UNL1       -0.0210
      4 C           2.2054    2.3456   -0.3569 C.ar    1  UNL1       -0.0562
      5 C           2.6202    3.6712   -0.1912 C.ar    1  UNL1       -0.0542
      6 C           3.8061    3.9649    0.4817 C.ar    1  UNL1       -0.0230
      7 C           4.1994    5.3663    0.6823 C.2     1  UNL1       -0.0509
      8 C           4.9092    5.7900    1.7398 C.2     1  UNL1       -0.0138
      9 C           5.2503    7.2314    1.8880 C.2     1  UNL1        0.1861
     10 O           4.6559    8.1040    1.2622 O.2     1  UNL1       -0.2873
     11 C           6.3143    7.5876    2.8621 C.ar    1  UNL1        0.0217
     12 C           7.3954    6.7352    3.1264 C.ar    1  UNL1       -0.0509
     13 C           8.3821    7.1181    4.0382 C.ar    1  UNL1       -0.0611
     14 C           8.2985    8.3519    4.6825 C.ar    1  UNL1       -0.0617
     15 C           7.2327    9.2099    4.4135 C.ar    1  UNL1       -0.0611
     16 C           6.2451    8.8320    3.5004 C.ar    1  UNL1       -0.0509
     17 C           4.6037    2.9008    0.9132 C.ar    1  UNL1       -0.0277
     18 C           4.2101    1.5620    0.7234 C.ar    1  UNL1        0.1122
     19 S           5.3663    0.3291    1.3247 S.O2    1  UNL1        0.0726
     20 O           6.2077    0.9570    2.3251 O.2     1  UNL1       -0.1500
     21 O           4.6424   -0.8816    1.6363 O.2     1  UNL1       -0.1500
     22 N           6.3020   -0.0051   -0.0387 N.pl3   1  UNL1       -0.2162
     23 C           7.0950    1.0104   -0.6414 C.ar    1  UNL1        0.0481
     24 C           8.3304    1.3574   -0.0941 C.ar    1  UNL1       -0.0379
     25 C           9.1418    2.2979   -0.7358 C.ar    1  UNL1       -0.0416
     26 C           8.6980    2.9061   -1.9098 C.ar    1  UNL1        0.0411
     27 CL          9.7065    4.0414   -2.7212 Cl      1  UNL1       -0.0835
     28 C           7.4479    2.5898   -2.4391 C.ar    1  UNL1       -0.0416
     29 C           6.6443    1.6377   -1.8052 C.ar    1  UNL1       -0.0379
     30 H           1.0857   -1.5185    0.9564 H       1  UNL1        0.0233
     31 H           1.9681   -0.4488    2.0608 H       1  UNL1        0.0233
     32 H           0.5920    0.1688    1.1398 H       1  UNL1        0.0233
     33 H           3.1628   -0.8718   -0.2063 H       1  UNL1        0.0311
     34 H           1.8044   -0.1457   -0.9900 H       1  UNL1        0.0311
     35 H           1.2521    2.1623   -0.8535 H       1  UNL1        0.0621
     36 H           1.9877    4.4724   -0.5695 H       1  UNL1        0.0624
     37 H           3.8615    6.0783   -0.0692 H       1  UNL1        0.0625
     38 H           5.2317    5.1206    2.5275 H       1  UNL1        0.0656
     39 H           7.5016    5.7816    2.6168 H       1  UNL1        0.0625
     40 H           9.2222    6.4570    4.2395 H       1  UNL1        0.0618
     41 H           9.0702    8.6492    5.3886 H       1  UNL1        0.0618
     42 H           7.1729   10.1756    4.9099 H       1  UNL1        0.0618
     43 H           5.4199    9.5105    3.2907 H       1  UNL1        0.0625
     44 H           5.5575    3.1091    1.3962 H       1  UNL1        0.0643
     45 H           5.8675   -0.6948   -0.6503 H       1  UNL1        0.1737
     46 H           8.6860    0.8735    0.8145 H       1  UNL1        0.0637
     47 H          10.1197    2.5393   -0.3279 H       1  UNL1        0.0633
     48 H           7.1003    3.0708   -3.3501 H       1  UNL1        0.0633
     49 H           5.6766    1.3926   -2.2325 H       1  UNL1        0.0637
@<TRIPOS>BOND
     1     1    30    1
     2     1    31    1
     3     1    32    1
     4     2     1    1
     5     2    33    1
     6     2    34    1
     7     3     2    1
     8     4     3   ar
     9     4    35    1
    10     5     4   ar
    11     5    36    1
    12     6     5   ar
    13     7     6    1
    14     7    37    1
    15     8     7    2
    16     8    38    1
    17     9     8    1
    18    10     9    2
    19    11     9    1
    20    12    11   ar
    21    12    39    1
    22    13    12   ar
    23    13    40    1
    24    14    13   ar
    25    14    41    1
    26    15    14   ar
    27    15    42    1
    28    16    15   ar
    29    16    11   ar
    30    16    43    1
    31    17     6   ar
    32    17    44    1
    33    18    17   ar
    34    18     3   ar
    35    19    18    1
    36    20    19    2
    37    21    19    2
    38    22    19    1
    39    22    45    1
    40    23    22    1
    41    24    23   ar
    42    24    46    1
    43    25    24   ar
    44    25    47    1
    45    26    25   ar
    46    27    26    1
    47    28    26   ar
    48    28    48    1
    49    29    28   ar
    50    29    23   ar
    51    29    49    1
@<TRIPOS>MOLECULE
mol_58_akc_jbmcl200907081
>58.sdf
 60 65 0 0 0
SMALL
GASTEIGER

@<TRIPOS>ATOM
      1 CL         -2.1493   -0.1532   -0.1901 Cl      1  UNL1       -0.0835
      2 C          -0.4295   -0.1114   -0.1835 C.ar    1  UNL1        0.0410
      3 C           0.2895   -1.3034   -0.1369 C.ar    1  UNL1       -0.0430
      4 C           1.6858   -1.2725   -0.1109 C.ar    1  UNL1       -0.0538
      5 C           2.3765   -0.0480   -0.1270 C.ar    1  UNL1       -0.0085
      6 C           1.6332    1.1438   -0.1943 C.ar    1  UNL1       -0.0538
      7 C           0.2358    1.1116   -0.2166 C.ar    1  UNL1       -0.0430
      8 C           3.8961   -0.0326   -0.0131 C.3     1  UNL1        0.1192
      9 N           4.4978    0.4742   -1.2220 N.pl3   1  UNL1       -0.2273
     10 C           5.1852    1.6497   -1.2367 C.cat   1  UNL1        0.3732
     11 N           5.4917    2.3539   -0.1897 N.2     1  UNL1       -0.0761
     12 C           5.1372    1.8361    1.0391 C.2     1  UNL1        0.1516
     13 C           4.3872    0.7249    1.1797 C.2     1  UNL1        0.0121
     14 C           3.9876    0.1762    2.5268 C.3     1  UNL1       -0.0207
     15 C           5.0110    0.4875    3.6131 C.3     1  UNL1       -0.0231
     16 C           5.4707    1.9165    3.5355 C.ar    1  UNL1       -0.0365
     17 C           5.5610    2.5529    2.2775 C.ar    1  UNL1        0.0202
     18 C           6.0489    3.8653    2.2298 C.ar    1  UNL1       -0.0509
     19 C           6.4302    4.5323    3.3987 C.ar    1  UNL1       -0.0611
     20 C           6.3385    3.8930    4.6334 C.ar    1  UNL1       -0.0615
     21 C           5.8687    2.5845    4.7022 C.ar    1  UNL1       -0.0579
     22 N           5.4990    2.0168   -2.5255 N.pl3   1  UNL1       -0.2216
     23 C           6.1166    1.0652   -3.4716 C.3     1  UNL1        0.0762
     24 C           7.5387    1.4989   -3.8904 C.3     1  UNL1        0.0413
     25 N           7.5072    2.8749   -4.4043 N.pl3   1  UNL1       -0.3242
     26 C           6.9727    3.8487   -3.4350 C.3     1  UNL1        0.0413
     27 C           5.5712    3.4282   -2.9403 C.3     1  UNL1        0.0762
     28 C           8.0003    3.2141   -5.6460 C.ar    1  UNL1        0.0298
     29 C           7.4328    4.2428   -6.4115 C.ar    1  UNL1       -0.0407
     30 C           7.9001    4.5566   -7.6968 C.ar    1  UNL1       -0.0600
     31 C           8.9642    3.8502   -8.2455 C.ar    1  UNL1       -0.0616
     32 C           9.5592    2.8369   -7.5061 C.ar    1  UNL1       -0.0600
     33 C           9.0792    2.5273   -6.2272 C.ar    1  UNL1       -0.0407
     34 H          -0.2295   -2.2579   -0.1088 H       1  UNL1        0.0632
     35 H           2.2311   -2.2125   -0.0581 H       1  UNL1        0.0622
     36 H           2.1438    2.1070   -0.2036 H       1  UNL1        0.0622
     37 H          -0.3242    2.0427   -0.2475 H       1  UNL1        0.0632
     38 H           4.2468   -1.0691    0.0858 H       1  UNL1        0.0770
     39 H           3.9442    0.3254   -2.0569 H       1  UNL1        0.2453
     40 H           3.0126    0.6017    2.7994 H       1  UNL1        0.0315
     41 H           3.8580   -0.9118    2.4802 H       1  UNL1        0.0315
     42 H           4.5665    0.2724    4.5921 H       1  UNL1        0.0316
     43 H           5.8870   -0.1644    3.4996 H       1  UNL1        0.0316
     44 H           6.1320    4.3790    1.2748 H       1  UNL1        0.0625
     45 H           6.8022    5.5516    3.3424 H       1  UNL1        0.0618
     46 H           6.6389    4.4111    5.5401 H       1  UNL1        0.0618
     47 H           5.8139    2.0869    5.6678 H       1  UNL1        0.0620
     48 H           6.1842    0.0590   -3.0449 H       1  UNL1        0.0650
     49 H           5.4762    0.9993   -4.3593 H       1  UNL1        0.0650
     50 H           8.2181    1.4538   -3.0306 H       1  UNL1        0.0493
     51 H           7.8986    0.7785   -4.6332 H       1  UNL1        0.0493
     52 H           7.6588    3.8919   -2.5804 H       1  UNL1        0.0493
     53 H           6.9246    4.8651   -3.8417 H       1  UNL1        0.0493
     54 H           4.8556    3.5655   -3.7619 H       1  UNL1        0.0650
     55 H           5.2523    4.1003   -2.1358 H       1  UNL1        0.0650
     56 H           6.5758    4.7970   -6.0388 H       1  UNL1        0.0636
     57 H           7.4213    5.3469   -8.2686 H       1  UNL1        0.0618
     58 H           9.3270    4.0890   -9.2409 H       1  UNL1        0.0618
     59 H          10.3991    2.2837   -7.9165 H       1  UNL1        0.0618
     60 H           9.5914    1.7451   -5.6732 H       1  UNL1        0.0636
@<TRIPOS>BOND
     1     2     1    1
     2     3     2   ar
     3     3    34    1
     4     4     3   ar
     5     4    35    1
     6     5     4   ar
     7     6     5   ar
     8     6    36    1
     9     7     6   ar
    10     7     2   ar
    11     7    37    1
    12     8     5    1
    13     8    38    1
    14     9     8    1
    15     9    39    1
    16    10     9    1
    17    11    10    2
    18    12    11    1
    19    13    12    2
    20    13     8    1
    21    14    13    1
    22    14    40    1
    23    14    41    1
    24    15    14    1
    25    15    42    1
    26    15    43    1
    27    16    15    1
    28    17    16   ar
    29    17    12    1
    30    18    17   ar
    31    18    44    1
    32    19    18   ar
    33    19    45    1
    34    20    19   ar
    35    20    46    1
    36    21    20   ar
    37    21    16   ar
    38    21    47    1
    39    22    10    1
    40    23    22    1
    41    23    48    1
    42    23    49    1
    43    24    23    1
    44    24    50    1
    45    24    51    1
    46    25    24    1
    47    26    25    1
    48    26    52    1
    49    26    53    1
    50    27    26    1
    51    27    22    1
    52    27    54    1
    53    27    55    1
    54    28    25    1
    55    29    28   ar
    56    29    56    1
    57    30    29   ar
    58    30    57    1
    59    31    30   ar
    60    31    58    1
    61    32    31   ar
    62    32    59    1
    63    33    32   ar
    64    33    28   ar
    65    33    60    1
@<TRIPOS>MOLECULE
mol_590_akc_jbmcl200903020
>572.sdf
 56 59 0 0 0
SMALL
GASTEIGER

@<TRIPOS>ATOM
      1 C           0.1118    2.3454    0.2006 C.3     1  UNL1        0.0788
      2 O           1.3887    1.7412   -0.0060 O.3     1  UNL1       -0.4949
      3 C           2.3045    1.9301    0.9911 C.ar    1  UNL1        0.1271
      4 C           2.2285    2.9086    1.9615 C.ar    1  UNL1        0.0226
      5 C           3.1592    2.9618    3.0156 C.ar    1  UNL1        0.1362
      6 O           2.9223    3.9433    3.9487 O.3     1  UNL1       -0.4942
      7 C           2.9750    5.2613    3.3768 C.3     1  UNL1        0.0788
      8 C           4.1780    1.9815    3.1774 C.ar    1  UNL1        0.0845
      9 C           4.3095    1.0744    2.0778 C.ar    1  UNL1        0.1362
     10 O           5.3903    0.2131    2.0583 O.3     1  UNL1       -0.4942
     11 C           5.1239   -1.0846    1.5266 C.3     1  UNL1        0.0788
     12 C           3.3876    1.0644    1.0096 C.ar    1  UNL1        0.0226
     13 C           4.8741    1.6946    4.5059 C.ar    1  UNL1        0.0908
     14 N           5.1680    0.3781    4.6612 N.ar    1  UNL1       -0.2135
     15 C           5.2406   -0.1501    5.8719 C.ar    1  UNL1        0.2192
     16 N           5.0030    0.5385    6.9884 N.ar    1  UNL1       -0.2143
     17 C           4.8331    1.8616    6.8575 C.ar    1  UNL1        0.0766
     18 C           4.5312    2.5967    8.0032 C.ar    1  UNL1       -0.0356
     19 C           4.4087    3.9864    7.9805 C.ar    1  UNL1       -0.0597
     20 C           4.6849    4.6727    6.8104 C.ar    1  UNL1       -0.0610
     21 C           4.9657    3.9510    5.6518 C.ar    1  UNL1       -0.0505
     22 C           4.9054    2.5353    5.6334 C.ar    1  UNL1        0.0267
     23 N           5.4792   -1.5170    5.9473 N.pl3   1  UNL1       -0.2895
     24 C           4.9225   -2.2068    7.1038 C.3     1  UNL1        0.0551
     25 C           5.9507   -2.3629    8.2325 C.3     1  UNL1       -0.0159
     26 N           7.1997   -3.0473    7.6743 N.4     1  UNL1        0.2353
     27 C           8.1721   -3.4248    8.7458 C.3     1  UNL1       -0.0430
     28 C           7.8139   -2.1754    6.5770 C.3     1  UNL1       -0.0159
     29 C           6.7929   -1.9351    5.4383 C.3     1  UNL1        0.0551
     30 H          -0.2748    2.1556    1.2106 H       1  UNL1        0.0660
     31 H           0.1626    3.4210    0.0013 H       1  UNL1        0.0660
     32 H          -0.5943    1.9022   -0.5063 H       1  UNL1        0.0660
     33 H           1.4152    3.6250    1.9515 H       1  UNL1        0.0691
     34 H           3.8312    5.3750    2.7010 H       1  UNL1        0.0660
     35 H           2.0423    5.5088    2.8612 H       1  UNL1        0.0660
     36 H           3.0958    5.9781    4.1947 H       1  UNL1        0.0660
     37 H           4.1696   -1.4885    1.8837 H       1  UNL1        0.0660
     38 H           5.1571   -1.0691    0.4325 H       1  UNL1        0.0660
     39 H           5.9168   -1.7573    1.8685 H       1  UNL1        0.0660
     40 H           3.4750    0.3528    0.1947 H       1  UNL1        0.0691
     41 H           4.3553    2.0701    8.9377 H       1  UNL1        0.0639
     42 H           4.1157    4.5265    8.8782 H       1  UNL1        0.0618
     43 H           4.6408    5.7592    6.7832 H       1  UNL1        0.0618
     44 H           5.1852    4.4936    4.7355 H       1  UNL1        0.0625
     45 H           4.6151   -3.2070    6.7711 H       1  UNL1        0.0517
     46 H           4.0092   -1.7273    7.4799 H       1  UNL1        0.0517
     47 H           5.5552   -3.0060    9.0247 H       1  UNL1        0.0830
     48 H           6.2676   -1.4031    8.6538 H       1  UNL1        0.0830
     49 H           6.8877   -3.9170    7.2229 H       1  UNL1        0.2032
     50 H           8.9886   -3.9834    8.2808 H       1  UNL1        0.0778
     51 H           8.5383   -2.5165    9.2286 H       1  UNL1        0.0778
     52 H           7.6512   -4.0665    9.4634 H       1  UNL1        0.0778
     53 H           8.1275   -1.2383    7.0503 H       1  UNL1        0.0830
     54 H           8.6936   -2.7082    6.1998 H       1  UNL1        0.0830
     55 H           6.6553   -2.8770    4.8929 H       1  UNL1        0.0517
     56 H           7.2208   -1.2250    4.7203 H       1  UNL1        0.0517
@<TRIPOS>UNITY_ATOM_ATTR
26 1
charge 1
@<TRIPOS>BOND
     1     1    30    1
     2     1    31    1
     3     1    32    1
     4     2     1    1
     5     3     2    1
     6     4     3   ar
     7     4    33    1
     8     5     4   ar
     9     6     5    1
    10     7     6    1
    11     7    34    1
    12     7    35    1
    13     7    36    1
    14     8     5   ar
    15     9     8   ar
    16    10     9    1
    17    11    10    1
    18    11    37    1
    19    11    38    1
    20    11    39    1
    21    12     9   ar
    22    12     3   ar
    23    12    40    1
    24    13     8    1
    25    14    13   ar
    26    15    14   ar
    27    16    15   ar
    28    17    16   ar
    29    18    17   ar
    30    18    41    1
    31    19    18   ar
    32    19    42    1
    33    20    19   ar
    34    20    43    1
    35    21    20   ar
    36    21    44    1
    37    22    21   ar
    38    22    13   ar
    39    22    17   ar
    40    23    15    1
    41    24    23    1
    42    24    45    1
    43    24    46    1
    44    25    24    1
    45    25    47    1
    46    25    48    1
    47    26    25    1
    48    26    49    1
    49    27    26    1
    50    27    50    1
    51    27    51    1
    52    27    52    1
    53    28    26    1
    54    28    53    1
    55    28    54    1
    56    29    28    1
    57    29    23    1
    58    29    55    1
    59    29    56    1
@<TRIPOS>MOLECULE
mol_591_akc_jbmcl200903039
>573.sdf
 26 28 0 0 0
SMALL
GASTEIGER

@<TRIPOS>ATOM
      1 O           0.8752   -0.2061    0.1117 O.3     1  UNL1       -0.3795
      2 C           2.2750   -0.0352    0.1080 C.3     1  UNL1        0.1607
      3 C           2.9137   -0.9090    1.1947 C.3     1  UNL1        0.0207
      4 C           4.1301   -0.1297    1.7042 C.3     1  UNL1        0.0836
      5 N           3.7629    1.2480    1.4601 N.pl3   1  UNL1       -0.2178
      6 C           4.7428    2.3084    1.5463 C.3     1  UNL1        0.1097
      7 C           4.0613    3.6253    1.2791 C.ar    1  UNL1        0.0425
      8 C           4.5922    4.8282    1.7635 C.ar    1  UNL1       -0.0509
      9 C           3.9347    6.0319    1.5117 C.ar    1  UNL1       -0.0611
     10 C           2.7607    6.0409    0.7595 C.ar    1  UNL1       -0.0576
     11 C           2.2457    4.8475    0.2508 C.ar    1  UNL1       -0.0105
     12 C           2.8839    3.6333    0.5055 C.ar    1  UNL1        0.1829
     13 N           2.3115    2.4463    0.0015 N.2     1  UNL1       -0.0434
     14 C           2.7741    1.3472    0.5128 C.2     1  UNL1        0.3184
     15 H           0.5139    0.5463    0.6165 H       1  UNL1        0.2106
     16 H           2.6717   -0.2774   -0.8827 H       1  UNL1        0.0721
     17 H           2.2024   -1.0806    2.0133 H       1  UNL1        0.0332
     18 H           3.1973   -1.8948    0.8109 H       1  UNL1        0.0332
     19 H           4.2940   -0.3117    2.7705 H       1  UNL1        0.0727
     20 H           5.0348   -0.4054    1.1493 H       1  UNL1        0.0727
     21 H           5.5364    2.1584    0.8027 H       1  UNL1        0.0779
     22 H           5.1944    2.3093    2.5438 H       1  UNL1        0.0779
     23 H           5.5086    4.8312    2.3493 H       1  UNL1        0.0623
     24 H           4.3337    6.9630    1.9065 H       1  UNL1        0.0618
     25 H           2.2424    6.9781    0.5698 H       1  UNL1        0.0619
     26 H           1.3305    4.8553   -0.3369 H       1  UNL1        0.0661
@<TRIPOS>BOND
     1     1    15    1
     2     2     1    1
     3     2    16    1
     4     3     2    1
     5     3    17    1
     6     3    18    1
     7     4     3    1
     8     4    19    1
     9     4    20    1
    10     5     4    1
    11     6     5    1
    12     6    21    1
    13     6    22    1
    14     7     6    1
    15     8     7   ar
    16     8    23    1
    17     9     8   ar
    18     9    24    1
    19    10     9   ar
    20    10    25    1
    21    11    10   ar
    22    11    26    1
    23    12    11   ar
    24    12     7   ar
    25    13    12    1
    26    14    13    2
    27    14     2    1
    28    14     5    1
@<TRIPOS>MOLECULE
mol_592_akc_jejmech200804016
>574.sdf
 50 52 0 0 0
SMALL
GASTEIGER

@<TRIPOS>ATOM
      1 C           1.0503    0.0002    0.2300 C.3     1  UNL1        0.0789
      2 O           2.4306   -0.1909   -0.0777 O.3     1  UNL1       -0.4932
      3 C           3.0086    0.7536   -0.8783 C.ar    1  UNL1        0.1464
      4 C           2.6227    2.1012   -0.8496 C.ar    1  UNL1       -0.0174
      5 C           3.2741    3.0575   -1.6386 C.ar    1  UNL1       -0.0510
      6 C           4.3483    2.6986   -2.4531 C.ar    1  UNL1       -0.0228
      7 C           4.9790    3.7222   -3.2981 C.2     1  UNL1       -0.0509
      8 C           6.2637    3.6850   -3.6825 C.2     1  UNL1       -0.0138
      9 C           6.8153    4.7536   -4.5563 C.2     1  UNL1        0.1861
     10 O           6.2729    5.8517   -4.6616 O.2     1  UNL1       -0.2873
     11 C           8.0832    4.4582   -5.2755 C.ar    1  UNL1        0.0217
     12 C           8.4188    3.1594   -5.6845 C.ar    1  UNL1       -0.0509
     13 C           9.6130    2.9284   -6.3707 C.ar    1  UNL1       -0.0611
     14 C          10.4701    3.9896   -6.6583 C.ar    1  UNL1       -0.0617
     15 C          10.1355    5.2852   -6.2645 C.ar    1  UNL1       -0.0611
     16 C           8.9424    5.5212   -5.5790 C.ar    1  UNL1       -0.0509
     17 C           4.7341    1.3539   -2.4873 C.ar    1  UNL1       -0.0246
     18 C           4.0778    0.3855   -1.7027 C.ar    1  UNL1        0.1472
     19 S           4.5439   -1.3181   -1.9734 S.O2    1  UNL1        0.0622
     20 O           3.3822   -2.1667   -1.8326 O.2     1  UNL1       -0.1529
     21 O           5.3220   -1.3378   -3.1960 O.2     1  UNL1       -0.1529
     22 N           5.6479   -1.6464   -0.7302 N.3     1  UNL1       -0.1855
     23 C           5.0654   -2.2456    0.4812 C.3     1  UNL1        0.0425
     24 C           6.0902   -2.6206    1.5314 C.ar    1  UNL1       -0.0319
     25 C           5.7194   -2.5792    2.8854 C.ar    1  UNL1       -0.0573
     26 C           6.5961   -3.0091    3.8826 C.ar    1  UNL1       -0.0615
     27 C           7.8562   -3.4920    3.5406 C.ar    1  UNL1       -0.0617
     28 C           8.2392   -3.5442    2.2014 C.ar    1  UNL1       -0.0615
     29 C           7.3600   -3.1174    1.2005 C.ar    1  UNL1       -0.0573
     30 H           0.8968    0.8658    0.8822 H       1  UNL1        0.0660
     31 H           0.4513    0.0852   -0.6830 H       1  UNL1        0.0660
     32 H           0.7056   -0.8795    0.7820 H       1  UNL1        0.0660
     33 H           1.8159    2.4514   -0.2126 H       1  UNL1        0.0655
     34 H           2.9332    4.0912   -1.6001 H       1  UNL1        0.0625
     35 H           4.3411    4.5465   -3.6158 H       1  UNL1        0.0625
     36 H           6.9389    2.8981   -3.3713 H       1  UNL1        0.0656
     37 H           7.7555    2.3181   -5.5026 H       1  UNL1        0.0625
     38 H           9.8696    1.9212   -6.6913 H       1  UNL1        0.0618
     39 H          11.3959    3.8081   -7.1992 H       1  UNL1        0.0618
     40 H          10.8005    6.1132   -6.4975 H       1  UNL1        0.0618
     41 H           8.6840    6.5358   -5.2815 H       1  UNL1        0.0625
     42 H           5.5301    1.0413   -3.1603 H       1  UNL1        0.0644
     43 H           6.2377   -0.8427   -0.5214 H       1  UNL1        0.1484
     44 H           4.3669   -1.5288    0.9211 H       1  UNL1        0.0490
     45 H           4.5281   -3.1641    0.2204 H       1  UNL1        0.0490
     46 H           4.7297   -2.2286    3.1712 H       1  UNL1        0.0621
     47 H           6.2877   -2.9814    4.9245 H       1  UNL1        0.0618
     48 H           8.5335   -3.8399    4.3165 H       1  UNL1        0.0618
     49 H           9.2187   -3.9344    1.9353 H       1  UNL1        0.0618
     50 H           7.6680   -3.1965    0.1594 H       1  UNL1        0.0621
@<TRIPOS>BOND
     1     1    30    1
     2     1    31    1
     3     1    32    1
     4     2     1    1
     5     3     2    1
     6     4     3   ar
     7     4    33    1
     8     5     4   ar
     9     5    34    1
    10     6     5   ar
    11     7     6    1
    12     7    35    1
    13     8     7    2
    14     8    36    1
    15     9     8    1
    16    10     9    2
    17    11     9    1
    18    12    11   ar
    19    12    37    1
    20    13    12   ar
    21    13    38    1
    22    14    13   ar
    23    14    39    1
    24    15    14   ar
    25    15    40    1
    26    16    15   ar
    27    16    11   ar
    28    16    41    1
    29    17     6   ar
    30    17    42    1
    31    18    17   ar
    32    18     3   ar
    33    19    18    1
    34    20    19    2
    35    21    19    2
    36    22    19    1
    37    22    43    1
    38    23    22    1
    39    23    44    1
    40    23    45    1
    41    24    23    1
    42    25    24   ar
    43    25    46    1
    44    26    25   ar
    45    26    47    1
    46    27    26   ar
    47    27    48    1
    48    28    27   ar
    49    28    49    1
    50    29    28   ar
    51    29    24   ar
    52    29    50    1
@<TRIPOS>MOLECULE
mol_593_akc_jbmc200811031
>575.sdf
 33 34 0 0 0
SMALL
GASTEIGER

@<TRIPOS>ATOM
      1 C           2.3964    2.0247   -1.6357 C.3     1  UNL1       -0.0383
      2 C           1.0713    1.3283   -1.4986 C.ar    1  UNL1       -0.0310
      3 C          -0.0368    2.0282   -0.9853 C.ar    1  UNL1       -0.0423
      4 C          -1.3192    1.4431   -0.8574 C.ar    1  UNL1        0.0318
      5 S          -2.5121    2.5701   -0.1236 S.3     1  UNL1       -0.0747
      6 C          -4.0869    1.7514   -0.0212 C.ar    1  UNL1        0.1667
      7 C          -4.4760    0.9897    1.0973 C.ar    1  UNL1        0.2939
      8 C          -5.7111    0.3122    1.1706 C.ar    1  UNL1        0.0288
      9 C          -6.6180    0.3802    0.1053 C.ar    1  UNL1        0.0677
     10 C          -6.2826    1.1701   -1.0019 C.ar    1  UNL1        0.0288
     11 C          -5.0463    1.8451   -1.0473 C.ar    1  UNL1        0.2939
     12 N          -4.7894    2.6314   -2.2434 N.pl3   1  UNL1        0.0810
     13 O          -4.6640    3.8525   -2.1047 O.co2   1  UNL1       -0.5760
     14 O          -4.7776    2.0172   -3.3191 O.2     1  UNL1        0.0415
     15 C          -7.9248   -0.3806    0.1273 C.3     1  UNL1        0.4178
     16 F          -8.0875   -1.1387    1.2436 F       1  UNL1       -0.1659
     17 F          -9.0004    0.4476    0.0673 F       1  UNL1       -0.1659
     18 F          -8.0382   -1.2297   -0.9281 F       1  UNL1       -0.1659
     19 N          -3.5970    0.8366    2.2450 N.pl3   1  UNL1        0.0810
     20 O          -2.5412    0.2164    2.0774 O.co2   1  UNL1       -0.5760
     21 O          -4.0125    1.2855    3.3218 O.2     1  UNL1        0.0415
     22 C          -1.4614    0.1139   -1.2914 C.ar    1  UNL1        0.0561
     23 CL         -2.9416   -0.7755   -1.3144 Cl      1  UNL1       -0.0823
     24 C          -0.3554   -0.6014   -1.7757 C.ar    1  UNL1       -0.0237
     25 C           0.8995   -0.0052   -1.8706 C.ar    1  UNL1        0.0453
     26 CL          2.2084   -0.9623   -2.4609 Cl      1  UNL1       -0.0832
     27 H           3.1496    1.5447   -1.0031 H       1  UNL1        0.0278
     28 H           2.7274    2.0044   -2.6795 H       1  UNL1        0.0278
     29 H           2.3322    3.0760   -1.3369 H       1  UNL1        0.0278
     30 H           0.1117    3.0651   -0.6769 H       1  UNL1        0.0632
     31 H          -5.9529   -0.2839    2.0534 H       1  UNL1        0.0691
     32 H          -6.9791    1.2478   -1.8396 H       1  UNL1        0.0691
     33 H          -0.4762   -1.6375   -2.0865 H       1  UNL1        0.0647
@<TRIPOS>UNITY_ATOM_ATTR
12 1
charge 1
13 1
charge -1
19 1
charge 1
20 1
charge -1
@<TRIPOS>BOND
     1     1    27    1
     2     1    28    1
     3     1    29    1
     4     2     1    1
     5     3     2   ar
     6     3    30    1
     7     4     3   ar
     8     5     4    1
     9     6     5    1
    10     7     6   ar
    11     8     7   ar
    12     8    31    1
    13     9     8   ar
    14    10     9   ar
    15    10    32    1
    16    11    10   ar
    17    11     6   ar
    18    12    11    1
    19    13    12    1
    20    14    12    2
    21    15     9    1
    22    16    15    1
    23    17    15    1
    24    18    15    1
    25    19     7    1
    26    20    19    1
    27    21    19    2
    28    22     4   ar
    29    23    22    1
    30    24    22   ar
    31    24    33    1
    32    25    24   ar
    33    25     2   ar
    34    26    25    1
@<TRIPOS>MOLECULE
mol_594_akc_jexppara200812004
>576.sdf
 45 48 0 0 0
SMALL
GASTEIGER

@<TRIPOS>ATOM
      1 C          -1.7307    1.4011    2.1056 C.3     1  UNL1        0.0154
      2 N          -1.2374    0.7430    0.9185 N.ar    1  UNL1       -0.3066
      3 C          -1.6048   -0.4969    0.4427 C.ar    1  UNL1        0.2157
      4 C          -0.9678   -0.6560   -0.7605 C.ar    1  UNL1        0.0774
      5 N          -0.2143    0.4464   -1.0420 N.ar    1  UNL1       -0.2315
      6 C          -0.3623    1.2752   -0.0163 C.ar    1  UNL1        0.1695
      7 C           0.2935    2.5498    0.0547 C.ar    1  UNL1        0.1689
      8 N           0.6620    3.1439    1.1678 N.ar    1  UNL1       -0.1365
      9 N           1.2880    4.3562    0.9247 N.ar    1  UNL1       -0.1254
     10 C           1.3323    4.6721   -0.3563 C.ar    1  UNL1        0.1846
     11 S           0.6685    3.4256   -1.3604 S.2     1  UNL1       -0.0276
     12 N           1.8780    5.8001   -0.8826 N.pl3   1  UNL1       -0.3052
     13 C           1.3798    6.4125   -2.1085 C.3     1  UNL1        0.0299
     14 C           2.5642    6.7109   -3.0287 C.3     1  UNL1        0.0308
     15 N           3.5908    7.5280   -2.3671 N.am    1  UNL1       -0.2945
     16 C           3.9953    7.0555   -1.0243 C.3     1  UNL1        0.0308
     17 C           2.8022    6.6443   -0.1208 C.3     1  UNL1        0.0299
     18 C           4.3043    8.5728   -2.9598 C.2     1  UNL1        0.2467
     19 O           5.1122    9.2561   -2.3324 O.2     1  UNL1       -0.2700
     20 C           4.0644    8.9327   -4.3893 C.ar    1  UNL1        0.0369
     21 C           3.9768   10.2888   -4.7287 C.ar    1  UNL1       -0.0496
     22 C           3.6845   10.6679   -6.0417 C.ar    1  UNL1       -0.0610
     23 C           3.4695    9.6956   -7.0183 C.ar    1  UNL1       -0.0617
     24 C           3.6088    8.3465   -6.6999 C.ar    1  UNL1       -0.0610
     25 C           3.9490    7.9689   -5.3994 C.ar    1  UNL1       -0.0496
     26 N          -2.4771   -1.4160    1.0869 N.pl3   1  UNL1        0.0750
     27 O          -2.9498   -1.0997    2.1816 O.2     1  UNL1       -0.1246
     28 O          -2.7019   -2.4747    0.4841 O.2     1  UNL1       -0.1246
     29 H          -2.8240    1.4049    2.0766 H       1  UNL1        0.0457
     30 H          -1.3583    0.8619    2.9800 H       1  UNL1        0.0457
     31 H          -1.4036    2.4390    2.1510 H       1  UNL1        0.0457
     32 H          -1.0136   -1.4999   -1.4385 H       1  UNL1        0.0869
     33 H           0.6584    5.7967   -2.6528 H       1  UNL1        0.0480
     34 H           0.8652    7.3471   -1.8590 H       1  UNL1        0.0480
     35 H           3.0502    5.7756   -3.3347 H       1  UNL1        0.0480
     36 H           2.1621    7.2075   -3.9111 H       1  UNL1        0.0480
     37 H           4.6365    6.1809   -1.1915 H       1  UNL1        0.0480
     38 H           4.6018    7.8088   -0.5110 H       1  UNL1        0.0480
     39 H           2.2724    7.5442    0.2150 H       1  UNL1        0.0480
     40 H           3.1905    6.1371    0.7702 H       1  UNL1        0.0480
     41 H           4.1331   11.0530   -3.9697 H       1  UNL1        0.0625
     42 H           3.6179   11.7217   -6.3012 H       1  UNL1        0.0618
     43 H           3.2105    9.9902   -8.0325 H       1  UNL1        0.0618
     44 H           3.4545    7.5879   -7.4634 H       1  UNL1        0.0618
     45 H           4.1003    6.9159   -5.1820 H       1  UNL1        0.0625
@<TRIPOS>BOND
     1     1    29    1
     2     1    30    1
     3     1    31    1
     4     2     1    1
     5     3     2   ar
     6     4     3   ar
     7     4    32    1
     8     5     4   ar
     9     6     5   ar
    10     6     2   ar
    11     7     6    1
    12     8     7   ar
    13     9     8   ar
    14    10     9   ar
    15    11    10   ar
    16    11     7   ar
    17    12    10    1
    18    13    12    1
    19    13    33    1
    20    13    34    1
    21    14    13    1
    22    14    35    1
    23    14    36    1
    24    15    14    1
    25    16    15    1
    26    16    37    1
    27    16    38    1
    28    17    16    1
    29    17    12    1
    30    17    39    1
    31    17    40    1
    32    18    15   am
    33    19    18    2
    34    20    18    1
    35    21    20   ar
    36    21    41    1
    37    22    21   ar
    38    22    42    1
    39    23    22   ar
    40    23    43    1
    41    24    23   ar
    42    24    44    1
    43    25    24   ar
    44    25    20   ar
    45    25    45    1
    46    26     3    1
    47    27    26    2
    48    28    26    2
@<TRIPOS>MOLECULE
mol_595_akc_znc_2009_7_807
>577.sdf
 34 36 0 0 0
SMALL
GASTEIGER

@<TRIPOS>ATOM
      1 C           1.1587    0.3456   -0.2409 C.3     1  UNL1        0.0788
      2 O           2.5334    0.0950    0.0388 O.3     1  UNL1       -0.4949
      3 C           3.1444   -0.7967   -0.8010 C.ar    1  UNL1        0.1271
      4 C           2.8007   -0.9938   -2.1400 C.ar    1  UNL1        0.0225
      5 C           3.4971   -1.9306   -2.9043 C.ar    1  UNL1        0.1343
      6 O           3.1157   -2.0569   -4.2131 O.3     1  UNL1       -0.5058
      7 C           4.5300   -2.6763   -2.3349 C.ar    1  UNL1        0.1007
      8 C           5.3056   -3.6520   -3.1187 C.2     1  UNL1        0.1740
      9 O           5.0514   -3.8319   -4.3075 O.2     1  UNL1       -0.2917
     10 C           6.4526   -4.3203   -2.4158 C.3     1  UNL1        0.0520
     11 C           6.0925   -4.5066   -0.9420 C.3     1  UNL1        0.1322
     12 O           5.8369   -3.2120   -0.3497 O.3     1  UNL1       -0.4828
     13 C           4.8704   -2.4839   -0.9973 C.ar    1  UNL1        0.1389
     14 C           4.2016   -1.5202   -0.2419 C.ar    1  UNL1        0.0227
     15 C           4.9900   -5.5214   -0.6265 C.ar    1  UNL1       -0.0069
     16 C           4.7858   -6.6605   -1.4232 C.ar    1  UNL1       -0.0551
     17 C           3.7698   -7.5737   -1.1289 C.ar    1  UNL1       -0.0614
     18 C           2.9497   -7.3762   -0.0229 C.ar    1  UNL1       -0.0617
     19 C           3.1578   -6.2755    0.8017 C.ar    1  UNL1       -0.0614
     20 C           4.1762   -5.3642    0.5103 C.ar    1  UNL1       -0.0551
     21 H           1.0354    0.9120   -1.1690 H       1  UNL1        0.0660
     22 H           0.5871   -0.5889   -0.2707 H       1  UNL1        0.0660
     23 H           0.7582    0.9581    0.5726 H       1  UNL1        0.0660
     24 H           2.0129   -0.4246   -2.6193 H       1  UNL1        0.0691
     25 H           3.6912   -2.7385   -4.6311 H       1  UNL1        0.2922
     26 H           6.6832   -5.2667   -2.9119 H       1  UNL1        0.0385
     27 H           7.3235   -3.6625   -2.5207 H       1  UNL1        0.0385
     28 H           6.9896   -4.8841   -0.4340 H       1  UNL1        0.0789
     29 H           4.4770   -1.3569    0.7971 H       1  UNL1        0.0691
     30 H           5.4074   -6.8670   -2.2902 H       1  UNL1        0.0621
     31 H           3.6203   -8.4408   -1.7677 H       1  UNL1        0.0618
     32 H           2.1550   -8.0830    0.1993 H       1  UNL1        0.0618
     33 H           2.5260   -6.1225    1.6731 H       1  UNL1        0.0618
     34 H           4.3184   -4.5185    1.1811 H       1  UNL1        0.0621
@<TRIPOS>BOND
     1     1    21    1
     2     1    22    1
     3     1    23    1
     4     2     1    1
     5     3     2    1
     6     4     3   ar
     7     4    24    1
     8     5     4   ar
     9     6     5    1
    10     6    25    1
    11     7     5   ar
    12     8     7    1
    13     9     8    2
    14    10     8    1
    15    10    26    1
    16    10    27    1
    17    11    10    1
    18    12    11    1
    19    13    12    1
    20    13     7   ar
    21    14    13   ar
    22    14     3   ar
    23    14    29    1
    24    16    15   ar
    25    16    30    1
    26    17    16   ar
    27    17    31    1
    28    18    17   ar
    29    18    32    1
    30    19    18   ar
    31    19    33    1
    32    20    19   ar
    33    20    15   ar
    34    20    34    1
    35    11    15    1
    36    11    28    1
@<TRIPOS>MOLECULE
mol_596_akc_znc_2009_7_807
>578.sdf
 32 34 0 0 0
SMALL
GASTEIGER

@<TRIPOS>ATOM
      1 C           1.2684    0.5732    0.4736 C.3     1  UNL1        0.0788
      2 O           2.3945   -0.0773   -0.1085 O.3     1  UNL1       -0.4949
      3 C           3.0492    0.5992   -1.1024 C.ar    1  UNL1        0.1271
      4 C           2.6691    1.8376   -1.6225 C.ar    1  UNL1        0.0225
      5 C           3.4388    2.4507   -2.6167 C.ar    1  UNL1        0.1347
      6 O           3.0374    3.6640   -3.0995 O.3     1  UNL1       -0.5058
      7 C           4.5955    1.8335   -3.1051 C.ar    1  UNL1        0.1055
      8 C           5.4730    2.4560   -4.1212 C.ar    1  UNL1        0.1966
      9 O           5.2881    3.5610   -4.6175 O.2     1  UNL1       -0.2869
     10 C           6.6519    1.6832   -4.5392 C.ar    1  UNL1        0.0288
     11 C           6.8651    0.4803   -3.9975 C.ar    1  UNL1        0.1392
     12 O           6.0613   -0.1133   -3.0439 O.2     1  UNL1       -0.4544
     13 C           4.9567    0.5794   -2.6050 C.ar    1  UNL1        0.1462
     14 C           4.1885   -0.0343   -1.6080 C.ar    1  UNL1        0.0233
     15 C           8.0291   -0.3133   -4.3959 C.ar    1  UNL1        0.0174
     16 C           9.2379   -0.1799   -3.7027 C.ar    1  UNL1       -0.0511
     17 C          10.3450   -0.9483   -4.0658 C.ar    1  UNL1       -0.0611
     18 C          10.2476   -1.8599   -5.1163 C.ar    1  UNL1       -0.0617
     19 C           9.0497   -1.9905   -5.8182 C.ar    1  UNL1       -0.0611
     20 C           7.9464   -1.2085   -5.4697 C.ar    1  UNL1       -0.0511
     21 H           1.5418    1.5484    0.8923 H       1  UNL1        0.0660
     22 H           0.4579    0.6720   -0.2564 H       1  UNL1        0.0660
     23 H           0.9042   -0.0479    1.2970 H       1  UNL1        0.0660
     24 H           1.7797    2.3432   -1.2641 H       1  UNL1        0.0691
     25 H           2.2321    3.9660   -2.6534 H       1  UNL1        0.2922
     26 H           7.3022    2.1387   -5.2750 H       1  UNL1        0.0693
     27 H           4.4852   -1.0055   -1.2164 H       1  UNL1        0.0691
     28 H           9.3214    0.5195   -2.8740 H       1  UNL1        0.0625
     29 H          11.2808   -0.8412   -3.5234 H       1  UNL1        0.0618
     30 H          11.1059   -2.4694   -5.3877 H       1  UNL1        0.0618
     31 H           8.9731   -2.7060   -6.6331 H       1  UNL1        0.0618
     32 H           7.0225   -1.3080   -6.0352 H       1  UNL1        0.0625
@<TRIPOS>BOND
     1     1    21    1
     2     1    22    1
     3     1    23    1
     4     2     1    1
     5     3     2    1
     6     4     3   ar
     7     4    24    1
     8     5     4   ar
     9     6     5    1
    10     6    25    1
    11     7     5   ar
    12     8     7   ar
    13     9     8    2
    14    10     8   ar
    15    10    26    1
    16    11    10   ar
    17    12    11   ar
    18    13    12   ar
    19    13     7   ar
    20    14    13   ar
    21    14     3   ar
    22    14    27    1
    23    15    11    1
    24    16    15   ar
    25    16    28    1
    26    17    16   ar
    27    17    29    1
    28    18    17   ar
    29    18    30    1
    30    19    18   ar
    31    19    31    1
    32    20    19   ar
    33    20    15   ar
    34    20    32    1
@<TRIPOS>MOLECULE
mol_597_ac_jbiopha200808024
>579.sdf
 60 62 0 0 0
SMALL
GASTEIGER

@<TRIPOS>ATOM
      1 C           6.1149    2.3661    0.5348 C.3     1  UNL1       -0.0646
      2 C           5.0820    2.6396   -0.5505 C.3     1  UNL1       -0.0463
      3 C           4.0513    1.5160   -0.7610 C.3     1  UNL1        0.0193
      4 C           3.2947    1.1736    0.5286 C.3     1  UNL1       -0.0554
      5 C           4.6565    0.2587   -1.4164 C.2     1  UNL1        0.1730
      6 O           4.5715   -0.8356   -0.8570 O.2     1  UNL1       -0.2915
      7 C           5.3471    0.3334   -2.7592 C.ar    1  UNL1        0.1020
      8 C           4.9545    1.2488   -3.7561 C.ar    1  UNL1        0.1375
      9 O           3.9260    2.1126   -3.4955 O.3     1  UNL1       -0.5055
     10 C           5.5667    1.2666   -5.0249 C.ar    1  UNL1        0.0366
     11 C           5.2043    2.2918   -6.0878 C.3     1  UNL1       -0.0205
     12 C           5.6066    3.7376   -5.7401 C.3     1  UNL1       -0.0465
     13 C           7.1130    3.9926   -5.5266 C.3     1  UNL1       -0.0464
     14 C           7.9409    3.7050   -6.7771 C.3     1  UNL1       -0.0627
     15 C           7.3308    5.4459   -5.0995 C.3     1  UNL1       -0.0627
     16 C           6.5803    0.3286   -5.2861 C.ar    1  UNL1        0.1308
     17 O           7.0425    0.2828   -6.5748 O.3     1  UNL1       -0.5060
     18 C           7.0906   -0.5156   -4.2838 C.ar    1  UNL1        0.0454
     19 C           6.4056   -0.5541   -3.0576 C.ar    1  UNL1        0.1528
     20 O           6.7193   -1.5725   -2.1208 O.3     1  UNL1       -0.4246
     21 C           7.7284   -2.4908   -2.3607 C.2     1  UNL1        0.3133
     22 O           7.7447   -3.6133   -1.8741 O.2     1  UNL1       -0.2504
     23 C           8.8595   -1.9203   -3.1508 C.3     1  UNL1        0.0564
     24 C           8.3590   -1.3381   -4.4656 C.3     1  UNL1        0.0263
     25 C           9.5196   -0.5540   -5.0903 C.ar    1  UNL1       -0.0392
     26 C          10.3832   -1.1781   -6.0025 C.ar    1  UNL1       -0.0580
     27 C          11.3771   -0.4410   -6.6534 C.ar    1  UNL1       -0.0615
     28 C          11.5229    0.9212   -6.4007 C.ar    1  UNL1       -0.0617
     29 C          10.7040    1.5441   -5.4647 C.ar    1  UNL1       -0.0615
     30 C           9.7264    0.8079   -4.7971 C.ar    1  UNL1       -0.0580
     31 H           6.8847    3.1452    0.5208 H       1  UNL1        0.0230
     32 H           5.6602    2.3793    1.5297 H       1  UNL1        0.0230
     33 H           6.6085    1.4012    0.3871 H       1  UNL1        0.0230
     34 H           4.5506    3.5653   -0.2961 H       1  UNL1        0.0269
     35 H           5.6195    2.8458   -1.4821 H       1  UNL1        0.0269
     36 H           3.2621    1.8782   -1.4240 H       1  UNL1        0.0378
     37 H           2.5812    0.3601    0.3567 H       1  UNL1        0.0237
     38 H           3.9622    0.8563    1.3340 H       1  UNL1        0.0237
     39 H           2.7235    2.0434    0.8741 H       1  UNL1        0.0237
     40 H           3.6206    2.5531   -4.3029 H       1  UNL1        0.2922
     41 H           5.6268    2.0339   -7.0646 H       1  UNL1        0.0316
     42 H           4.1199    2.2477   -6.2527 H       1  UNL1        0.0316
     43 H           5.2480    4.3878   -6.5493 H       1  UNL1        0.0271
     44 H           5.0714    4.0617   -4.8397 H       1  UNL1        0.0271
     45 H           7.4757    3.3528   -4.7109 H       1  UNL1        0.0296
     46 H           7.5732    4.2760   -7.6357 H       1  UNL1        0.0232
     47 H           8.9899    3.9773   -6.6183 H       1  UNL1        0.0232
     48 H           7.9195    2.6465   -7.0409 H       1  UNL1        0.0232
     49 H           7.0066    6.1419   -5.8819 H       1  UNL1        0.0232
     50 H           6.7690    5.6760   -4.1883 H       1  UNL1        0.0232
     51 H           8.3894    5.6389   -4.8938 H       1  UNL1        0.0232
     52 H           7.7680   -0.3517   -6.6786 H       1  UNL1        0.2922
     53 H           9.3560   -1.1723   -2.5204 H       1  UNL1        0.0387
     54 H           9.5900   -2.7164   -3.3455 H       1  UNL1        0.0387
     55 H           8.0827   -2.1658   -5.1389 H       1  UNL1        0.0405
     56 H          10.2849   -2.2381   -6.2277 H       1  UNL1        0.0620
     57 H          12.0344   -0.9279   -7.3705 H       1  UNL1        0.0618
     58 H          12.2745    1.5005   -6.9315 H       1  UNL1        0.0618
     59 H          10.8106    2.6077   -5.2658 H       1  UNL1        0.0618
     60 H           9.0938    1.3276   -4.0801 H       1  UNL1        0.0620
@<TRIPOS>BOND
     1     1    31    1
     2     1    32    1
     3     1    33    1
     4     2     1    1
     5     2    34    1
     6     2    35    1
     7     4     3    1
     8     4    37    1
     9     4    38    1
    10     4    39    1
    11     5     3    1
    12     6     5    2
    13     7     5    1
    14     8     7   ar
    15     9     8    1
    16     9    40    1
    17    10     8   ar
    18    11    10    1
    19    11    41    1
    20    11    42    1
    21    12    11    1
    22    12    43    1
    23    12    44    1
    24    13    12    1
    25    13    45    1
    26    14    13    1
    27    14    46    1
    28    14    47    1
    29    14    48    1
    30    15    13    1
    31    15    49    1
    32    15    50    1
    33    15    51    1
    34    16    10   ar
    35    17    16    1
    36    17    52    1
    37    18    16   ar
    38    19    18   ar
    39    19     7   ar
    40    20    19    1
    41    21    20    1
    42    22    21    2
    43    23    21    1
    44    23    53    1
    45    23    54    1
    46    24    23    1
    47    24    18    1
    48    26    25   ar
    49    26    56    1
    50    27    26   ar
    51    27    57    1
    52    28    27   ar
    53    28    58    1
    54    29    28   ar
    55    29    59    1
    56    30    29   ar
    57    30    25   ar
    58    30    60    1
    59     3    36    1
    60     3     2    1
    61    24    25    1
    62    24    55    1
@<TRIPOS>MOLECULE
mol_598_akc_jbiopha200808024
>579_2.sdf
 60 62 0 0 0
SMALL
GASTEIGER

@<TRIPOS>ATOM
      1 C           6.0552    0.6247    2.3266 C.3     1  UNL1       -0.0646
      2 C           5.0019    1.6808    2.0225 C.3     1  UNL1       -0.0463
      3 C           3.9861    1.3066    0.9267 C.3     1  UNL1        0.0193
      4 C           3.2327    0.0121    1.2552 C.3     1  UNL1       -0.0554
      5 C           4.5860    1.2807   -0.4960 C.2     1  UNL1        0.1730
      6 O           4.4687    0.2821   -1.2037 O.2     1  UNL1       -0.2915
      7 C           5.2982    2.4931   -1.0559 C.ar    1  UNL1        0.1020
      8 C           4.9601    3.8098   -0.6781 C.ar    1  UNL1        0.1375
      9 O           3.9213    3.9908    0.1984 O.3     1  UNL1       -0.5055
     10 C           5.6205    4.9425   -1.2077 C.ar    1  UNL1        0.0366
     11 C           5.1801    6.3441   -0.8111 C.3     1  UNL1       -0.0205
     12 C           5.2052    7.4726   -1.8520 C.3     1  UNL1       -0.0465
     13 C           4.4307    7.1897   -3.1540 C.3     1  UNL1       -0.0464
     14 C           2.9419    6.9402   -2.9076 C.3     1  UNL1       -0.0627
     15 C           4.6133    8.3701   -4.1098 C.3     1  UNL1       -0.0627
     16 C           6.6825    4.7150   -2.0963 C.ar    1  UNL1        0.1308
     17 O           7.4055    5.7888   -2.5369 O.3     1  UNL1       -0.5060
     18 C           7.0199    3.4264   -2.5417 C.ar    1  UNL1        0.0454
     19 C           6.3106    2.3330   -2.0230 C.ar    1  UNL1        0.1528
     20 O           6.5744    1.0381   -2.5396 O.3     1  UNL1       -0.4246
     21 C           7.5782    0.7589   -3.4542 C.2     1  UNL1        0.3133
     22 O           7.6513   -0.3169   -4.0448 O.2     1  UNL1       -0.2504
     23 C           8.6434    1.8008   -3.5447 C.3     1  UNL1        0.0564
     24 C           8.0629    3.2033   -3.6162 C.3     1  UNL1        0.0263
     25 C           7.5693    3.5850   -5.0123 C.ar    1  UNL1       -0.0392
     26 C           6.2626    3.3083   -5.4472 C.ar    1  UNL1       -0.0580
     27 C           5.8152    3.7461   -6.6969 C.ar    1  UNL1       -0.0615
     28 C           6.6725    4.4495   -7.5373 C.ar    1  UNL1       -0.0617
     29 C           7.9801    4.7045   -7.1378 C.ar    1  UNL1       -0.0615
     30 C           8.4298    4.2727   -5.8862 C.ar    1  UNL1       -0.0580
     31 H           6.7539    1.0080    3.0786 H       1  UNL1        0.0230
     32 H           5.6086   -0.2849    2.7377 H       1  UNL1        0.0230
     33 H           6.6313    0.3638    1.4344 H       1  UNL1        0.0230
     34 H           4.4541    1.8971    2.9483 H       1  UNL1        0.0269
     35 H           5.5285    2.6049    1.7636 H       1  UNL1        0.0269
     36 H           3.1891    2.0548    0.9167 H       1  UNL1        0.0378
     37 H           2.5246   -0.2403    0.4578 H       1  UNL1        0.0237
     38 H           3.9008   -0.8438    1.3803 H       1  UNL1        0.0237
     39 H           2.6538    0.1377    2.1778 H       1  UNL1        0.0237
     40 H           4.0122    4.8293    0.6775 H       1  UNL1        0.2922
     41 H           4.1423    6.3200   -0.4627 H       1  UNL1        0.0316
     42 H           5.7832    6.6444    0.0549 H       1  UNL1        0.0316
     43 H           4.7781    8.3659   -1.3751 H       1  UNL1        0.0271
     44 H           6.2388    7.7496   -2.0839 H       1  UNL1        0.0271
     45 H           4.8448    6.3026   -3.6467 H       1  UNL1        0.0296
     46 H           2.4893    7.7601   -2.3400 H       1  UNL1        0.0232
     47 H           2.4008    6.8472   -3.8556 H       1  UNL1        0.0232
     48 H           2.7811    6.0112   -2.3516 H       1  UNL1        0.0232
     49 H           4.2214    9.2959   -3.6750 H       1  UNL1        0.0232
     50 H           5.6746    8.5231   -4.3339 H       1  UNL1        0.0232
     51 H           4.0948    8.1911   -5.0571 H       1  UNL1        0.0232
     52 H           7.5889    5.6804   -3.4866 H       1  UNL1        0.2922
     53 H           9.2731    1.6893   -2.6533 H       1  UNL1        0.0387
     54 H           9.2756    1.5953   -4.4183 H       1  UNL1        0.0387
     55 H           8.9027    3.8735   -3.3794 H       1  UNL1        0.0405
     56 H           5.5589    2.7656   -4.8185 H       1  UNL1        0.0620
     57 H           4.7953    3.5382   -7.0088 H       1  UNL1        0.0618
     58 H           6.3194    4.7930   -8.5069 H       1  UNL1        0.0618
     59 H           8.6528    5.2441   -7.8010 H       1  UNL1        0.0618
     60 H           9.4570    4.4890   -5.5999 H       1  UNL1        0.0620
@<TRIPOS>BOND
     1     1    31    1
     2     1    32    1
     3     1    33    1
     4     2     1    1
     5     2    34    1
     6     2    35    1
     7     4     3    1
     8     4    37    1
     9     4    38    1
    10     4    39    1
    11     5     3    1
    12     6     5    2
    13     7     5    1
    14     8     7   ar
    15     9     8    1
    16     9    40    1
    17    10     8   ar
    18    11    10    1
    19    11    41    1
    20    11    42    1
    21    12    11    1
    22    12    43    1
    23    12    44    1
    24    13    12    1
    25    13    45    1
    26    14    13    1
    27    14    46    1
    28    14    47    1
    29    14    48    1
    30    15    13    1
    31    15    49    1
    32    15    50    1
    33    15    51    1
    34    16    10   ar
    35    17    16    1
    36    17    52    1
    37    18    16   ar
    38    19    18   ar
    39    19     7   ar
    40    20    19    1
    41    21    20    1
    42    22    21    2
    43    23    21    1
    44    23    53    1
    45    23    54    1
    46    24    23    1
    47    24    18    1
    48    24    55    1
    49    25    24    1
    50    26    25   ar
    51    26    56    1
    52    27    26   ar
    53    27    57    1
    54    28    27   ar
    55    28    58    1
    56    29    28   ar
    57    29    59    1
    58    30    29   ar
    59    30    25   ar
    60    30    60    1
    61     3    36    1
    62     3     2    1
@<TRIPOS>MOLECULE
mol_599_akc_jejmech200712014
>580.sdf
 46 47 0 0 0
SMALL
GASTEIGER

@<TRIPOS>ATOM
      1 C          -2.6623    1.0538   -0.4905 C.3     1  UNL1       -0.0435
      2 C          -1.4281    0.3024   -0.0585 C.2     1  UNL1       -0.0729
      3 C          -1.4239   -1.0428   -0.1064 C.2     1  UNL1       -0.0847
      4 C          -0.2185   -1.9036    0.1141 C.3     1  UNL1       -0.0340
      5 C           1.0138   -1.1425    0.5963 C.3     1  UNL1       -0.0439
      6 C           1.1440    0.2716   -0.0221 C.3     1  UNL1       -0.0281
      7 C           1.3557    0.1691   -1.5515 C.3     1  UNL1       -0.0593
      8 C           2.4203    0.9286    0.5515 C.3     1  UNL1       -0.0593
      9 C          -0.1650    1.1043    0.2892 C.3     1  UNL1       -0.0146
     10 C          -0.1675    1.6229    1.7550 C.3     1  UNL1       -0.0390
     11 C          -1.3868    2.4344    2.1691 C.3     1  UNL1        0.0104
     12 C          -1.2622    3.0109    3.5655 C.2     1  UNL1        0.1561
     13 O          -0.2894    2.8360    4.2908 O.2     1  UNL1       -0.2927
     14 C          -2.4402    3.8022    4.0195 C.2     1  UNL1       -0.0186
     15 C          -2.5161    4.2575    5.2770 C.2     1  UNL1       -0.0499
     16 C          -3.6429    5.0482    5.7822 C.ar    1  UNL1       -0.0068
     17 C          -4.9550    4.8952    5.3197 C.ar    1  UNL1       -0.0517
     18 C          -5.9741    5.6809    5.8530 C.ar    1  UNL1       -0.0430
     19 C          -5.6542    6.5881    6.8464 C.ar    1  UNL1        0.0276
     20 N          -4.4075    6.7523    7.3390 N.ar    1  UNL1       -0.2627
     21 C          -3.4373    5.9763    6.7984 C.ar    1  UNL1        0.0347
     22 H          -3.0835    1.6699    0.3053 H       1  UNL1        0.0274
     23 H          -2.4350    1.7029   -1.3401 H       1  UNL1        0.0274
     24 H          -3.4642    0.3732   -0.8043 H       1  UNL1        0.0274
     25 H          -2.3281   -1.5784   -0.3907 H       1  UNL1        0.0572
     26 H          -0.4596   -2.6978    0.8301 H       1  UNL1        0.0308
     27 H           0.0152   -2.4008   -0.8354 H       1  UNL1        0.0308
     28 H           0.9649   -1.0637    1.6906 H       1  UNL1        0.0274
     29 H           1.9086   -1.7404    0.3838 H       1  UNL1        0.0274
     30 H           1.5103    1.1632   -1.9882 H       1  UNL1        0.0235
     31 H           2.2413   -0.4334   -1.7841 H       1  UNL1        0.0235
     32 H           0.5071   -0.2850   -2.0707 H       1  UNL1        0.0235
     33 H           3.3194    0.3916    0.2270 H       1  UNL1        0.0235
     34 H           2.5135    1.9670    0.2155 H       1  UNL1        0.0235
     35 H           2.4326    0.9176    1.6458 H       1  UNL1        0.0235
     36 H          -0.1462    1.9885   -0.3655 H       1  UNL1        0.0351
     37 H          -0.0507    0.7868    2.4550 H       1  UNL1        0.0275
     38 H           0.7058    2.2717    1.8990 H       1  UNL1        0.0275
     39 H          -1.5382    3.2638    1.4688 H       1  UNL1        0.0345
     40 H          -2.2711    1.7928    2.1908 H       1  UNL1        0.0345
     41 H          -3.2132    3.9782    3.2817 H       1  UNL1        0.0652
     42 H          -1.7023    4.0697    5.9765 H       1  UNL1        0.0625
     43 H          -5.2030    4.1635    4.5560 H       1  UNL1        0.0624
     44 H          -6.9959    5.5831    5.5018 H       1  UNL1        0.0633
     45 H          -6.4149    7.2219    7.2937 H       1  UNL1        0.0829
     46 H          -2.4478    6.1405    7.2211 H       1  UNL1        0.0835
@<TRIPOS>BOND
     1     1    22    1
     2     1    23    1
     3     1    24    1
     4     2     1    1
     5     3     2    2
     6     3    25    1
     7     4     3    1
     8     4    26    1
     9     4    27    1
    10     5     4    1
    11     5    28    1
    12     5    29    1
    13     6     5    1
    14     7     6    1
    15     7    30    1
    16     7    31    1
    17     7    32    1
    18     8     6    1
    19     8    33    1
    20     8    34    1
    21     8    35    1
    22     9     6    1
    23     9     2    1
    24     9    36    1
    25    10     9    1
    26    10    37    1
    27    10    38    1
    28    11    10    1
    29    11    39    1
    30    11    40    1
    31    12    11    1
    32    13    12    2
    33    14    12    1
    34    14    41    1
    35    15    14    2
    36    15    42    1
    37    16    15    1
    38    17    16   ar
    39    17    43    1
    40    18    17   ar
    41    18    44    1
    42    19    18   ar
    43    19    45    1
    44    20    19   ar
    45    21    20   ar
    46    21    16   ar
    47    21    46    1
@<TRIPOS>MOLECULE
mol_59_akc_2047773211y0000000005
>59.sdf
 52 56 0 0 0
SMALL
GASTEIGER

@<TRIPOS>ATOM
      1 C           5.8525    0.1267    0.9331 C.3     1  UNL1        0.0788
      2 O           4.7461    0.4376    0.1004 O.3     1  UNL1       -0.4951
      3 C           4.8820    1.5185   -0.7232 C.ar    1  UNL1        0.1201
      4 C           6.0785    2.0946   -1.1608 C.ar    1  UNL1       -0.0193
      5 C           6.0658    3.1924   -2.0399 C.ar    1  UNL1       -0.0490
      6 C           4.8664    3.7525   -2.4926 C.ar    1  UNL1        0.0026
      7 C           3.6724    3.1487   -2.0339 C.ar    1  UNL1       -0.0490
      8 C           3.6801    2.0447   -1.1778 C.ar    1  UNL1       -0.0193
      9 C           4.7647    4.8456   -3.4794 C.ar    1  UNL1        0.0957
     10 C           5.6967    5.1546   -4.4793 C.ar    1  UNL1        0.0738
     11 N           6.7506    6.0777   -4.4541 N.ar    1  UNL1       -0.3525
     12 C           6.8347    6.7051   -5.6873 C.ar    1  UNL1        0.0475
     13 C           6.2336    5.8519   -6.6088 C.ar    1  UNL1        0.0075
     14 C           6.2237    6.1841   -7.9786 C.ar    1  UNL1       -0.0520
     15 C           6.6204    7.4661   -8.3542 C.ar    1  UNL1       -0.0611
     16 C           7.0670    8.3729   -7.3944 C.ar    1  UNL1       -0.0598
     17 C           7.2435    7.9954   -6.0533 C.ar    1  UNL1       -0.0378
     18 C           5.2532    5.1847   -5.8103 C.ar    1  UNL1        0.0117
     19 C           3.8694    5.0956   -6.0819 C.ar    1  UNL1       -0.0214
     20 C           3.2032    5.6452   -4.9984 C.ar    1  UNL1        0.1267
     21 N           3.5304    5.3829   -3.7115 N.ar    1  UNL1       -0.2400
     22 C           2.6128    7.0322   -5.2265 C.2     1  UNL1        0.2627
     23 O           2.6597    7.5754   -6.3254 O.2     1  UNL1       -0.2685
     24 N           2.1790    7.6542   -4.0757 N.am    1  UNL1       -0.3060
     25 C           2.0750    9.1013   -3.9847 C.3     1  UNL1        0.0372
     26 C           0.7577    9.5698   -3.4246 C.ar    1  UNL1       -0.0303
     27 C           0.1491    8.9261   -2.3370 C.ar    1  UNL1       -0.0571
     28 C          -1.0641    9.3893   -1.8213 C.ar    1  UNL1       -0.0615
     29 C          -1.6733   10.5124   -2.3742 C.ar    1  UNL1       -0.0617
     30 C          -1.0675   11.1810   -3.4355 C.ar    1  UNL1       -0.0615
     31 C           0.1435   10.7162   -3.9537 C.ar    1  UNL1       -0.0571
     32 H           6.6737   -0.3001    0.3494 H       1  UNL1        0.0660
     33 H           6.1837    1.0048    1.5005 H       1  UNL1        0.0660
     34 H           5.5256   -0.6291    1.6518 H       1  UNL1        0.0660
     35 H           7.0350    1.6768   -0.8571 H       1  UNL1        0.0654
     36 H           7.0233    3.5864   -2.3835 H       1  UNL1        0.0625
     37 H           2.7066    3.5119   -2.3776 H       1  UNL1        0.0625
     38 H           2.7379    1.5957   -0.8751 H       1  UNL1        0.0654
     39 H           7.0815    6.5036   -3.5985 H       1  UNL1        0.1660
     40 H           5.7368    5.5319   -8.6993 H       1  UNL1        0.0624
     41 H           6.4813    7.7824   -9.3854 H       1  UNL1        0.0618
     42 H           7.2433    9.4051   -7.6916 H       1  UNL1        0.0618
     43 H           7.5519    8.7286   -5.3144 H       1  UNL1        0.0638
     44 H           3.5393    5.3358   -7.0897 H       1  UNL1        0.0647
     45 H           2.3396    7.1334   -3.2222 H       1  UNL1        0.1494
     46 H           2.8785    9.4375   -3.3229 H       1  UNL1        0.0512
     47 H           2.2570    9.5503   -4.9679 H       1  UNL1        0.0512
     48 H           0.6094    8.0504   -1.8864 H       1  UNL1        0.0621
     49 H          -1.5328    8.8673   -0.9928 H       1  UNL1        0.0618
     50 H          -2.6204   10.8672   -1.9771 H       1  UNL1        0.0618
     51 H          -1.5388   12.0616   -3.8637 H       1  UNL1        0.0618
     52 H           0.6024   11.2530   -4.7817 H       1  UNL1        0.0621
@<TRIPOS>BOND
     1     1    32    1
     2     1    33    1
     3     1    34    1
     4     2     1    1
     5     3     2    1
     6     4     3   ar
     7     4    35    1
     8     5     4   ar
     9     5    36    1
    10     6     5   ar
    11     7     6   ar
    12     7    37    1
    13     8     7   ar
    14     8     3   ar
    15     8    38    1
    16     9     6    1
    17    10     9   ar
    18    11    10   ar
    19    11    39    1
    20    12    11   ar
    21    13    12   ar
    22    14    13   ar
    23    14    40    1
    24    15    14   ar
    25    15    41    1
    26    16    15   ar
    27    16    42    1
    28    17    16   ar
    29    17    12   ar
    30    17    43    1
    31    18    13   ar
    32    18    10   ar
    33    19    18   ar
    34    19    44    1
    35    20    19   ar
    36    21    20   ar
    37    21     9   ar
    38    22    20    1
    39    23    22    2
    40    24    22   am
    41    24    45    1
    42    25    24    1
    43    25    46    1
    44    25    47    1
    45    26    25    1
    46    27    26   ar
    47    27    48    1
    48    28    27   ar
    49    28    49    1
    50    29    28   ar
    51    29    50    1
    52    30    29   ar
    53    30    51    1
    54    31    30   ar
    55    31    26   ar
    56    31    52    1
@<TRIPOS>MOLECULE
mol_5_akc_1573406417666210216154428
>5.sdf
 34 35 0 0 0
SMALL
GASTEIGER

@<TRIPOS>ATOM
      1 N           1.1960   -0.0877   -0.2408 N.pl3   1  UNL1       -0.2925
      2 C           2.4865   -0.1979   -0.3129 C.cat   1  UNL1        0.3349
      3 N           3.0308   -1.1283    0.2853 N.pl3   1  UNL1       -0.3928
      4 N           3.2958    0.5984   -0.9797 N.pl3   1  UNL1       -0.1600
      5 N           4.7178    0.4605   -0.9924 N.2     1  UNL1       -0.1194
      6 C           5.3092    1.3904   -1.6860 C.2     1  UNL1        0.0703
      7 C           6.7842    1.4815   -1.7424 C.ar    1  UNL1        0.0037
      8 C           7.4886    0.2617   -1.7804 C.ar    1  UNL1       -0.0525
      9 C           8.8740    0.2540   -1.8964 C.ar    1  UNL1       -0.0611
     10 C           9.5587    1.4579   -1.9678 C.ar    1  UNL1       -0.0611
     11 C           8.8615    2.6698   -1.9005 C.ar    1  UNL1       -0.0534
     12 C           7.4549    2.7294   -1.7818 C.ar    1  UNL1       -0.0092
     13 C           6.7873    4.0623   -1.6791 C.ar    1  UNL1       -0.0173
     14 C           7.2859    5.1824   -2.3771 C.ar    1  UNL1       -0.0540
     15 C           6.6848    6.4427   -2.2795 C.ar    1  UNL1       -0.0612
     16 C           5.5427    6.6144   -1.5080 C.ar    1  UNL1       -0.0617
     17 C           5.0298    5.5363   -0.7979 C.ar    1  UNL1       -0.0612
     18 C           5.6656    4.2899   -0.8557 C.ar    1  UNL1       -0.0540
     19 H           0.5710   -0.7089    0.2644 H       1  UNL1        0.2545
     20 H           0.7041    0.6711   -0.7098 H       1  UNL1        0.2545
     21 H           3.9147   -0.7661    0.6363 H       1  UNL1        0.2155
     22 H           2.8616    1.3763   -1.4875 H       1  UNL1        0.2920
     23 H           4.7398    2.1630   -2.2321 H       1  UNL1        0.0867
     24 H           6.9747   -0.6948   -1.7536 H       1  UNL1        0.0624
     25 H           9.4238   -0.6841   -1.9436 H       1  UNL1        0.0618
     26 H          10.6432    1.4633   -2.0720 H       1  UNL1        0.0618
     27 H           9.4580    3.5823   -1.9288 H       1  UNL1        0.0624
     28 H           8.1699    5.1037   -3.0084 H       1  UNL1        0.0624
     29 H           7.1181    7.2930   -2.8030 H       1  UNL1        0.0618
     30 H           5.0730    7.5936   -1.4422 H       1  UNL1        0.0618
     31 H           4.1521    5.6809   -0.1733 H       1  UNL1        0.0618
     32 H           5.2783    3.5101   -0.2112 H       1  UNL1        0.0624
     33 H           2.5025   -1.6075    0.9851 H       1  UNL1        0.2155
     34 H           3.3692   -1.7682   -0.4187 H       1  UNL1        0.2155
@<TRIPOS>BOND
     1     1    19    1
     2     1    20    1
     3     2     1    1
     4     3     2    2
     5     3    21    1
     6     3    33    1
     7     4     2    1
     8     4    22    1
     9     5     4    1
    10     6     5    2
    11     6    23    1
    12     7     6    1
    13     8     7   ar
    14     8    24    1
    15     9     8   ar
    16     9    25    1
    17    10     9   ar
    18    10    26    1
    19    11    10   ar
    20    11    27    1
    21    12    11   ar
    22    12     7   ar
    23    13    12    1
    24    14    13   ar
    25    14    28    1
    26    15    14   ar
    27    15    29    1
    28    16    15   ar
    29    16    30    1
    30    17    16   ar
    31    17    31    1
    32    18    17   ar
    33    18    13   ar
    34    18    32    1
    35     3    34    1
@<TRIPOS>MOLECULE
mol_600_akc_aac00124_08
>581.sdf
 9 8 0 0 0
SMALL
GASTEIGER

@<TRIPOS>ATOM
      1 N           1.1815   -0.0403   -0.0585 N.am    1  UNL1       -0.3117
      2 C           2.5336   -0.0734   -0.0558 C.2     1  UNL1        0.3198
      3 O           3.1653   -1.1151    0.0627 O.2     1  UNL1       -0.2509
      4 N           3.1294    1.1401   -0.1950 N.am    1  UNL1       -0.1815
      5 O           2.3354    2.2966   -0.3255 O.3     1  UNL1       -0.2940
      6 H           0.6540   -0.8933    0.0388 H       1  UNL1        0.1465
      7 H           0.7299    0.8574   -0.1615 H       1  UNL1        0.1465
      8 H           4.1407    1.2029   -0.2021 H       1  UNL1        0.1838
      9 H           2.9969    3.0075   -0.4051 H       1  UNL1        0.2414
@<TRIPOS>BOND
     1     1     6    1
     2     1     7    1
     3     2     1   am
     4     3     2    2
     5     4     2   am
     6     4     8    1
     7     5     4    1
     8     5     9    1
@<TRIPOS>MOLECULE
mol_601_akc_jbmc200808024
>582.sdf
 83 86 0 0 0
SMALL
GASTEIGER

@<TRIPOS>ATOM
      1 C           8.6568    5.0498    0.7707 C.3     1  UNL1       -0.0411
      2 C           7.9983    3.8995    0.0395 C.3     1  UNL1        0.0541
      3 O           8.0301    4.1579   -1.3595 O.3     1  UNL1       -0.3076
      4 P           7.3264    2.9293   -2.3536 P.3     1  UNL1        0.3474
      5 O           5.9853    3.1409   -1.6509 O.2     1  UNL1       -0.2575
      6 O           7.8548    3.7870   -3.6492 O.3     1  UNL1       -0.3076
      7 C           9.2724    3.6934   -3.8252 C.3     1  UNL1        0.0541
      8 C           9.7420    4.3409   -5.0993 C.3     1  UNL1       -0.0411
      9 C           6.5820    1.6297   -3.4052 C.3     1  UNL1        0.1621
     10 C           6.7441    0.2983   -2.6463 C.3     1  UNL1       -0.0280
     11 C           6.3422   -1.0005   -3.3498 C.3     1  UNL1       -0.0516
     12 C           7.2077   -1.4225   -4.5502 C.3     1  UNL1       -0.0514
     13 C           6.7730   -2.8141   -5.0424 C.3     1  UNL1       -0.0349
     14 C           7.3669   -3.2118   -6.4005 C.3     1  UNL1        0.0239
     15 N           6.9147   -4.5416   -6.8169 N.ar    1  UNL1       -0.3396
     16 C           7.6481   -5.7039   -6.6120 C.ar    1  UNL1        0.0498
     17 C           9.0084   -5.9198   -6.3335 C.ar    1  UNL1       -0.0376
     18 C           9.4148   -7.2149   -5.9912 C.ar    1  UNL1       -0.0598
     19 C           8.4962   -8.2555   -5.9028 C.ar    1  UNL1       -0.0611
     20 C           7.1615   -8.0478   -6.2553 C.ar    1  UNL1       -0.0523
     21 C           6.7426   -6.7646   -6.6609 C.ar    1  UNL1        0.0037
     22 C           5.5278   -6.2468   -7.1797 C.ar    1  UNL1       -0.0134
     23 C           5.6440   -4.8663   -7.2646 C.ar    1  UNL1        0.0544
     24 C           4.5723   -3.9474   -7.6724 C.ar    1  UNL1        0.0122
     25 C           4.8374   -2.9584   -8.6410 C.ar    1  UNL1       -0.0516
     26 C           3.8322   -2.1078   -9.0973 C.ar    1  UNL1       -0.0611
     27 C           2.5315   -2.2513   -8.6272 C.ar    1  UNL1       -0.0607
     28 C           2.2409   -3.2397   -7.6880 C.ar    1  UNL1       -0.0477
     29 C           3.2436   -4.0986   -7.2060 C.ar    1  UNL1        0.0170
     30 S           2.7346   -5.2256   -5.8964 S.3     1  UNL1       -0.1242
     31 C           3.1996   -6.8972   -6.5139 C.3     1  UNL1        0.0024
     32 C           4.3006   -7.0034   -7.5587 C.3     1  UNL1       -0.0157
     33 P           4.8663    2.1002   -3.8338 P.3     1  UNL1        0.3474
     34 O           5.2585    3.5877   -3.8976 O.2     1  UNL1       -0.2575
     35 O           5.2404    1.7591   -5.3959 O.3     1  UNL1       -0.3076
     36 C           4.6838    0.8859   -6.3271 C.3     1  UNL1        0.0541
     37 C           5.0418    1.4792   -7.6849 C.3     1  UNL1       -0.0411
     38 O           3.2443    2.5451   -4.2389 O.3     1  UNL1       -0.3076
     39 C           2.7379    3.8118   -3.8295 C.3     1  UNL1        0.0541
     40 C           1.2922    3.9219   -4.2595 C.3     1  UNL1       -0.0411
     41 H           8.6215    4.8930    1.8535 H       1  UNL1        0.0252
     42 H           9.7001    5.1587    0.4626 H       1  UNL1        0.0252
     43 H           8.1515    5.9945    0.5369 H       1  UNL1        0.0252
     44 H           8.5246    2.9640    0.2432 H       1  UNL1        0.0562
     45 H           6.9611    3.8081    0.3934 H       1  UNL1        0.0562
     46 H           9.7834    4.1744   -2.9772 H       1  UNL1        0.0562
     47 H           9.5643    2.6320   -3.8147 H       1  UNL1        0.0562
     48 H           9.3131    3.8473   -5.9717 H       1  UNL1        0.0252
     49 H           9.4554    5.3959   -5.1326 H       1  UNL1        0.0252
     50 H          10.8376    4.2810   -5.1688 H       1  UNL1        0.0252
     51 H           7.2121    1.5630   -4.3008 H       1  UNL1        0.0549
     52 H           7.7905    0.2075   -2.3291 H       1  UNL1        0.0279
     53 H           6.1619    0.3648   -1.7183 H       1  UNL1        0.0279
     54 H           6.4174   -1.8017   -2.5977 H       1  UNL1        0.0266
     55 H           5.2925   -0.9490   -3.6430 H       1  UNL1        0.0266
     56 H           7.1151   -0.6900   -5.3563 H       1  UNL1        0.0266
     57 H           8.2662   -1.4536   -4.2664 H       1  UNL1        0.0266
     58 H           7.0572   -3.5634   -4.2900 H       1  UNL1        0.0282
     59 H           5.6782   -2.8481   -5.1039 H       1  UNL1        0.0282
     60 H           7.0919   -2.4973   -7.1790 H       1  UNL1        0.0492
     61 H           8.4590   -3.2204   -6.3527 H       1  UNL1        0.0492
     62 H           9.7358   -5.1173   -6.3844 H       1  UNL1        0.0638
     63 H          10.4624   -7.4078   -5.7732 H       1  UNL1        0.0618
     64 H           8.8180   -9.2415   -5.5780 H       1  UNL1        0.0618
     65 H           6.4527   -8.8694   -6.2094 H       1  UNL1        0.0624
     66 H           5.8365   -2.8594   -9.0606 H       1  UNL1        0.0624
     67 H           4.0593   -1.3491   -9.8430 H       1  UNL1        0.0618
     68 H           1.7435   -1.5972   -8.9915 H       1  UNL1        0.0618
     69 H           1.2180   -3.3330   -7.3282 H       1  UNL1        0.0629
     70 H           3.4963   -7.4698   -5.6267 H       1  UNL1        0.0383
     71 H           2.2932   -7.3755   -6.9018 H       1  UNL1        0.0383
     72 H           4.5457   -8.0610   -7.7178 H       1  UNL1        0.0322
     73 H           3.9304   -6.6465   -8.5289 H       1  UNL1        0.0322
     74 H           5.1713   -0.0870   -6.2211 H       1  UNL1        0.0562
     75 H           3.6062    0.7759   -6.2036 H       1  UNL1        0.0562
     76 H           4.3308    2.2663   -7.9588 H       1  UNL1        0.0252
     77 H           6.0329    1.9625   -7.6728 H       1  UNL1        0.0252
     78 H           5.0423    0.7263   -8.4765 H       1  UNL1        0.0252
     79 H           2.8257    3.9043   -2.7513 H       1  UNL1        0.0562
     80 H           3.2861    4.6220   -4.3200 H       1  UNL1        0.0562
     81 H           1.1988    3.8057   -5.3401 H       1  UNL1        0.0252
     82 H           0.6834    3.1378   -3.7983 H       1  UNL1        0.0252
     83 H           0.8785    4.8980   -3.9748 H       1  UNL1        0.0252
@<TRIPOS>BOND
     1     1    41    1
     2     1    42    1
     3     1    43    1
     4     2     1    1
     5     2    44    1
     6     2    45    1
     7     3     2    1
     8     4     3    1
     9     5     4    2
    10     6     4    1
    11     7     6    1
    12     7    46    1
    13     7    47    1
    14     8     7    1
    15     8    48    1
    16     8    49    1
    17     8    50    1
    18     9     4    1
    19     9    51    1
    20    10     9    1
    21    10    52    1
    22    10    53    1
    23    11    10    1
    24    11    54    1
    25    11    55    1
    26    12    11    1
    27    12    56    1
    28    12    57    1
    29    13    12    1
    30    13    58    1
    31    13    59    1
    32    14    13    1
    33    14    60    1
    34    14    61    1
    35    15    14    1
    36    16    15   ar
    37    17    16   ar
    38    17    62    1
    39    18    17   ar
    40    18    63    1
    41    19    18   ar
    42    19    64    1
    43    20    19   ar
    44    20    65    1
    45    21    20   ar
    46    21    16   ar
    47    22    21   ar
    48    23    22   ar
    49    23    15   ar
    50    24    23    1
    51    25    24   ar
    52    25    66    1
    53    26    25   ar
    54    26    67    1
    55    27    26   ar
    56    27    68    1
    57    28    27   ar
    58    28    69    1
    59    29    28   ar
    60    29    24   ar
    61    30    29    1
    62    31    30    1
    63    31    70    1
    64    31    71    1
    65    32    31    1
    66    32    22    1
    67    32    72    1
    68    32    73    1
    69    33     9    1
    70    34    33    2
    71    35    33    1
    72    36    35    1
    73    36    74    1
    74    36    75    1
    75    37    36    1
    76    37    76    1
    77    37    77    1
    78    37    78    1
    79    38    33    1
    80    39    38    1
    81    39    79    1
    82    39    80    1
    83    40    39    1
    84    40    81    1
    85    40    82    1
    86    40    83    1
@<TRIPOS>MOLECULE
mol_602_akc_jbmc200807077
>583.sdf
 34 35 0 0 0
SMALL
GASTEIGER

@<TRIPOS>ATOM
      1 C           1.0837    0.9942   -0.2250 C.3     1  UNL1       -0.0416
      2 C           2.5916    0.8951   -0.1110 C.3     1  UNL1        0.0449
      3 O           3.1361    0.5997   -1.3986 O.3     1  UNL1       -0.3784
      4 C           4.5607    0.5063   -1.3462 C.3     1  UNL1        0.0676
      5 C           5.0832    0.2644   -2.7480 C.3     1  UNL1        0.1006
      6 S           6.8367    0.0086   -2.6918 S.O2    1  UNL1        0.0634
      7 O           7.5016    1.2382   -2.3315 O.2     1  UNL1       -0.1637
      8 O           7.1254   -1.2121   -1.9780 O.2     1  UNL1       -0.1637
      9 C           7.2893   -0.2951   -4.2861 C.ar    1  UNL1        0.4118
     10 N           7.5516    0.7057   -5.1164 N.ar    1  UNL1        0.0781
     11 O           7.3820    1.9443   -5.1088 O.co2   1  UNL1       -0.5761
     12 O           7.9307    0.1446   -6.3716 O.2     1  UNL1       -0.0968
     13 N           7.8575   -1.2291   -6.2532 N.ar    1  UNL1       -0.0004
     14 C           7.4358   -1.5049   -5.0072 C.ar    1  UNL1        0.2127
     15 C           7.1852   -2.9097   -4.6529 C.ar    1  UNL1        0.0120
     16 C           7.9721   -3.9249   -5.2226 C.ar    1  UNL1       -0.0522
     17 C           7.7277   -5.2726   -4.9384 C.ar    1  UNL1       -0.0611
     18 C           6.6964   -5.6261   -4.0736 C.ar    1  UNL1       -0.0617
     19 C           5.8986   -4.6380   -3.5089 C.ar    1  UNL1       -0.0611
     20 C           6.1322   -3.2934   -3.8123 C.ar    1  UNL1       -0.0522
     21 H           0.6386    1.2504    0.7407 H       1  UNL1        0.0252
     22 H           0.8003    1.7563   -0.9582 H       1  UNL1        0.0252
     23 H           0.6587    0.0456   -0.5682 H       1  UNL1        0.0252
     24 H           2.9976    1.8470    0.2481 H       1  UNL1        0.0557
     25 H           2.8605    0.1010    0.5943 H       1  UNL1        0.0557
     26 H           4.9782    1.4360   -0.9420 H       1  UNL1        0.0576
     27 H           4.8404   -0.3192   -0.6803 H       1  UNL1        0.0576
     28 H           4.6011   -0.6119   -3.1869 H       1  UNL1        0.0529
     29 H           4.8672    1.1191   -3.3980 H       1  UNL1        0.0529
     30 H           8.7825   -3.6791   -5.9075 H       1  UNL1        0.0624
     31 H           8.3423   -6.0435   -5.3954 H       1  UNL1        0.0618
     32 H           6.5109   -6.6721   -3.8460 H       1  UNL1        0.0618
     33 H           5.0908   -4.9087   -2.8343 H       1  UNL1        0.0618
     34 H           5.4608   -2.5727   -3.3689 H       1  UNL1        0.0624
@<TRIPOS>UNITY_ATOM_ATTR
10 1
charge 1
11 1
charge -1
@<TRIPOS>BOND
     1     1    21    1
     2     1    22    1
     3     1    23    1
     4     2     1    1
     5     2    24    1
     6     2    25    1
     7     3     2    1
     8     4     3    1
     9     4    26    1
    10     4    27    1
    11     5     4    1
    12     5    28    1
    13     5    29    1
    14     6     5    1
    15     7     6    2
    16     8     6    2
    17     9     6    1
    18    10     9   ar
    19    11    10    1
    20    12    10   ar
    21    13    12   ar
    22    14    13   ar
    23    14     9   ar
    24    15    14    1
    25    16    15   ar
    26    16    30    1
    27    17    16   ar
    28    17    31    1
    29    18    17   ar
    30    18    32    1
    31    19    18   ar
    32    19    33    1
    33    20    19   ar
    34    20    15   ar
    35    20    34    1
@<TRIPOS>MOLECULE
mol_603_akc_14756360701585619
>585.sdf
 48 51 0 0 0
SMALL
GASTEIGER

@<TRIPOS>ATOM
      1 C          -0.8769   -2.1173   -2.3105 C.3     1  UNL1        0.0788
      2 O           0.4492   -1.8176   -1.8919 O.3     1  UNL1       -0.4951
      3 C           1.1732   -2.8358   -1.3415 C.ar    1  UNL1        0.1201
      4 C           0.7361   -4.1414   -1.1375 C.ar    1  UNL1       -0.0194
      5 C           1.6021   -5.0946   -0.5865 C.ar    1  UNL1       -0.0511
      6 C           2.9194   -4.7608   -0.2353 C.ar    1  UNL1       -0.0246
      7 C           3.7955   -5.8246    0.2840 C.2     1  UNL1       -0.0477
      8 C           5.1381   -5.7639    0.3208 C.2     1  UNL1        0.0207
      9 C           5.8772   -6.9047    0.7070 C.ar    1  UNL1        0.2824
     10 N           6.1383   -7.9963   -0.0022 N.ar    1  UNL1       -0.0351
     11 N           6.6234   -9.0896    0.6955 N.ar    1  UNL1        0.0330
     12 C           6.8817   -8.7537    1.9437 C.ar    1  UNL1        0.2354
     13 N           7.4289   -9.5312    2.9030 N.pl3   1  UNL1       -0.2890
     14 C           7.4263  -10.9388    2.9543 C.ar    1  UNL1        0.0329
     15 C           8.4424  -11.5858    3.6744 C.ar    1  UNL1       -0.0405
     16 C           8.5126  -12.9805    3.7244 C.ar    1  UNL1       -0.0600
     17 C           7.5650  -13.7497    3.0560 C.ar    1  UNL1       -0.0616
     18 C           6.5549  -13.1261    2.3311 C.ar    1  UNL1       -0.0600
     19 C           6.4949  -11.7308    2.2691 C.ar    1  UNL1       -0.0405
     20 S           6.4928   -7.1045    2.2962 S.2     1  UNL1        0.0230
     21 C           5.9294   -8.1355   -1.4564 C.ar    1  UNL1        0.2413
     22 C           6.0590   -7.0420   -2.3176 C.ar    1  UNL1        0.0126
     23 C           5.8539   -7.2186   -3.6864 C.ar    1  UNL1       -0.0555
     24 C           5.5361   -8.4820   -4.1858 C.ar    1  UNL1       -0.0613
     25 C           5.4461   -9.5777   -3.3248 C.ar    1  UNL1       -0.0555
     26 C           5.6567   -9.4109   -1.9530 C.ar    1  UNL1        0.0126
     27 C           3.3349   -3.4357   -0.4069 C.ar    1  UNL1       -0.0511
     28 C           2.4701   -2.4892   -0.9631 C.ar    1  UNL1       -0.0194
     29 H          -0.8843   -2.8996   -3.0767 H       1  UNL1        0.0660
     30 H          -1.5030   -2.3943   -1.4561 H       1  UNL1        0.0660
     31 H          -1.2992   -1.2116   -2.7563 H       1  UNL1        0.0660
     32 H          -0.2702   -4.4537   -1.4010 H       1  UNL1        0.0654
     33 H           1.2264   -6.1071   -0.4513 H       1  UNL1        0.0625
     34 H           3.2699   -6.7235    0.6096 H       1  UNL1        0.0626
     35 H           5.6874   -4.8795    0.0141 H       1  UNL1        0.0690
     36 H           7.7406   -9.1057    3.7719 H       1  UNL1        0.1542
     37 H           9.2045  -11.0110    4.1955 H       1  UNL1        0.0636
     38 H           9.3092  -13.4664    4.2834 H       1  UNL1        0.0618
     39 H           7.6149  -14.8354    3.1016 H       1  UNL1        0.0618
     40 H           5.8076  -13.7273    1.8179 H       1  UNL1        0.0618
     41 H           5.6785  -11.2836    1.7120 H       1  UNL1        0.0636
     42 H           6.3591   -6.0568   -1.9802 H       1  UNL1        0.0684
     43 H           5.9515   -6.3777   -4.3714 H       1  UNL1        0.0620
     44 H           5.3725   -8.6161   -5.2551 H       1  UNL1        0.0618
     45 H           5.2119  -10.5613   -3.7299 H       1  UNL1        0.0620
     46 H           5.5838  -10.2756   -1.3005 H       1  UNL1        0.0684
     47 H           4.3269   -3.1016   -0.1192 H       1  UNL1        0.0625
     48 H           2.8117   -1.4654   -1.1064 H       1  UNL1        0.0654
@<TRIPOS>UNITY_ATOM_ATTR
10 1
charge 1
@<TRIPOS>BOND
     1     1    29    1
     2     1    30    1
     3     1    31    1
     4     2     1    1
     5     3     2    1
     6     4     3   ar
     7     4    32    1
     8     5     4   ar
     9     5    33    1
    10     6     5   ar
    11     7     6    1
    12     7    34    1
    13     8     7    2
    14     8    35    1
    15     9     8    1
    16    10     9   ar
    17    11    10   ar
    18    12    11   ar
    19    13    12    1
    20    13    36    1
    21    14    13    1
    22    15    14   ar
    23    15    37    1
    24    16    15   ar
    25    16    38    1
    26    17    16   ar
    27    17    39    1
    28    18    17   ar
    29    18    40    1
    30    19    18   ar
    31    19    14   ar
    32    19    41    1
    33    20    12   ar
    34    20     9   ar
    35    21    10    1
    36    22    21   ar
    37    22    42    1
    38    23    22   ar
    39    23    43    1
    40    24    23   ar
    41    24    44    1
    42    25    24   ar
    43    25    45    1
    44    26    25   ar
    45    26    21   ar
    46    26    46    1
    47    27     6   ar
    48    27    47    1
    49    28    27   ar
    50    28     3   ar
    51    28    48    1
@<TRIPOS>MOLECULE
mol_604_akc_jacdkn046
>586.sdf
 38 40 0 0 0
SMALL
GASTEIGER

@<TRIPOS>ATOM
      1 C           5.5153   -0.2550    0.6406 C.3     1  UNL1       -0.0443
      2 N           4.5232    0.5162    1.4340 N.4     1  UNL1        0.2303
      3 C           3.0680    0.1410    1.2513 C.3     1  UNL1        0.0032
      4 C           2.8908   -1.3076    1.7404 C.3     1  UNL1       -0.0045
      5 C           1.4567   -1.6198    2.1520 C.3     1  UNL1       -0.0367
      6 C           0.9598   -0.6786    3.2630 C.3     1  UNL1        0.0099
      7 C           1.5246   -1.0411    4.6344 C.ar    1  UNL1       -0.0385
      8 C           0.8234   -1.9366    5.4570 C.ar    1  UNL1       -0.0565
      9 C           1.3095   -2.2739    6.7248 C.ar    1  UNL1       -0.0417
     10 C           2.5109   -1.7346    7.1893 C.ar    1  UNL1        0.0593
     11 CL          3.0572   -2.1976    8.7586 Cl      1  UNL1       -0.0820
     12 C           3.2241   -0.8483    6.3812 C.ar    1  UNL1        0.0595
     13 CL          4.7278   -0.1443    6.8578 Cl      1  UNL1       -0.0820
     14 C           2.7275   -0.5018    5.1189 C.ar    1  UNL1       -0.0382
     15 C           1.1937    0.7758    2.8799 C.ar    1  UNL1       -0.0315
     16 C           0.4128    1.7602    3.5131 C.ar    1  UNL1       -0.0575
     17 C           0.5671    3.1061    3.1967 C.ar    1  UNL1       -0.0615
     18 C           1.4872    3.4853    2.2282 C.ar    1  UNL1       -0.0613
     19 C           2.2703    2.5206    1.5924 C.ar    1  UNL1       -0.0530
     20 C           2.1668    1.1570    1.9317 C.ar    1  UNL1        0.0038
     21 H           6.4762    0.2553    0.7420 H       1  UNL1        0.0777
     22 H           5.5823   -1.2649    1.0502 H       1  UNL1        0.0777
     23 H           5.1962   -0.2637   -0.4036 H       1  UNL1        0.0777
     24 H           4.7565    0.4606    2.4336 H       1  UNL1        0.2017
     25 H           4.6336    1.5078    1.1959 H       1  UNL1        0.2017
     26 H           2.8667    0.1881    0.1732 H       1  UNL1        0.0903
     27 H           3.5588   -1.5247    2.5824 H       1  UNL1        0.0324
     28 H           3.1887   -1.9962    0.9387 H       1  UNL1        0.0324
     29 H           0.8105   -1.5135    1.2700 H       1  UNL1        0.0276
     30 H           1.3833   -2.6673    2.4689 H       1  UNL1        0.0276
     31 H          -0.1312   -0.8144    3.3111 H       1  UNL1        0.0397
     32 H          -0.1201   -2.3712    5.1278 H       1  UNL1        0.0621
     33 H           0.7394   -2.9579    7.3515 H       1  UNL1        0.0633
     34 H           3.2866    0.2168    4.5286 H       1  UNL1        0.0635
     35 H          -0.3279    1.4803    4.2621 H       1  UNL1        0.0621
     36 H          -0.0428    3.8560    3.6963 H       1  UNL1        0.0618
     37 H           1.5851    4.5371    1.9639 H       1  UNL1        0.0618
     38 H           2.9497    2.8661    0.8141 H       1  UNL1        0.0622
@<TRIPOS>UNITY_ATOM_ATTR
2 1
charge 1
@<TRIPOS>BOND
     1     1    21    1
     2     1    22    1
     3     1    23    1
     4     2     1    1
     5     2    24    1
     6     2    25    1
     7     4     3    1
     8     4    27    1
     9     4    28    1
    10     5     4    1
    11     5    29    1
    12     5    30    1
    13     6     5    1
    14     6    31    1
    15     7     6    1
    16     8     7   ar
    17     8    32    1
    18     9     8   ar
    19     9    33    1
    20    10     9   ar
    21    11    10    1
    22    12    10   ar
    23    13    12    1
    24    14    12   ar
    25    14     7   ar
    26    14    34    1
    27    15     6    1
    28    16    15   ar
    29    16    35    1
    30    17    16   ar
    31    17    36    1
    32    18    17   ar
    33    18    37    1
    34    19    18   ar
    35    19    38    1
    36    20    19   ar
    37    20     3    1
    38    20    15   ar
    39     3    26    1
    40     3     2    1
@<TRIPOS>MOLECULE
mol_605_akc_jbmc200802052
>587.sdf
 42 45 0 0 0
SMALL
GASTEIGER

@<TRIPOS>ATOM
      1 O           1.4349    0.7721   -0.3956 O.2     1  UNL1       -0.2700
      2 C           2.4064    0.0421   -0.1991 C.2     1  UNL1        0.2467
      3 N           2.9616   -0.7476   -1.2076 N.am    1  UNL1       -0.2945
      4 C           2.5341   -0.5025   -2.5952 C.3     1  UNL1        0.0308
      5 C           2.3687   -1.8018   -3.4038 C.3     1  UNL1        0.0299
      6 N           3.5648   -2.6320   -3.2660 N.pl3   1  UNL1       -0.3052
      7 C           3.9192   -2.9755   -1.8907 C.3     1  UNL1        0.0299
      8 C           4.0857   -1.6903   -1.0598 C.3     1  UNL1        0.0308
      9 C           4.2716   -3.1622   -4.2992 C.ar    1  UNL1        0.1846
     10 N           5.1000   -4.1854   -4.1830 N.ar    1  UNL1       -0.1254
     11 N           5.7761   -4.4856   -5.3457 N.ar    1  UNL1       -0.1364
     12 C           5.4635   -3.6556   -6.3143 C.ar    1  UNL1        0.1687
     13 S           4.2612   -2.5139   -5.9037 S.2     1  UNL1       -0.0276
     14 C           6.1032   -3.6817   -7.5970 C.ar    1  UNL1        0.1645
     15 C           7.0592   -4.5770   -8.0619 C.ar    1  UNL1       -0.0114
     16 C           7.4292   -4.1734   -9.3719 C.ar    1  UNL1        0.0086
     17 C           6.6717   -3.0569   -9.6254 C.ar    1  UNL1        0.2803
     18 O           5.8637   -2.7481   -8.5806 O.2     1  UNL1       -0.4318
     19 N           6.6051   -2.1870  -10.7594 N.pl3   1  UNL1        0.0926
     20 O           7.3520   -2.4667  -11.7056 O.2     1  UNL1       -0.1231
     21 O           5.8172   -1.2366  -10.7099 O.2     1  UNL1       -0.1231
     22 C           2.9525   -0.0035    1.1843 C.ar    1  UNL1        0.0369
     23 C           2.0471   -0.0353    2.2531 C.ar    1  UNL1       -0.0496
     24 C           2.5147   -0.1177    3.5663 C.ar    1  UNL1       -0.0610
     25 C           3.8858   -0.1724    3.8160 C.ar    1  UNL1       -0.0617
     26 C           4.7915   -0.0890    2.7596 C.ar    1  UNL1       -0.0610
     27 C           4.3259    0.0333    1.4495 C.ar    1  UNL1       -0.0496
     28 H           1.5974    0.0636   -2.6259 H       1  UNL1        0.0480
     29 H           3.3093    0.1229   -3.0550 H       1  UNL1        0.0480
     30 H           1.5128   -2.3642   -3.0085 H       1  UNL1        0.0480
     31 H           2.1249   -1.5548   -4.4413 H       1  UNL1        0.0480
     32 H           3.1245   -3.5940   -1.4575 H       1  UNL1        0.0480
     33 H           4.8523   -3.5473   -1.8215 H       1  UNL1        0.0480
     34 H           4.9838   -1.1529   -1.3903 H       1  UNL1        0.0480
     35 H           4.2194   -1.9867   -0.0190 H       1  UNL1        0.0480
     36 H           7.4502   -5.4177   -7.5008 H       1  UNL1        0.0657
     37 H           8.1539   -4.6273  -10.0303 H       1  UNL1        0.0673
     38 H           0.9765    0.0056    2.0632 H       1  UNL1        0.0625
     39 H           1.8093   -0.1418    4.3934 H       1  UNL1        0.0618
     40 H           4.2490   -0.2625    4.8367 H       1  UNL1        0.0618
     41 H           5.8605   -0.1148    2.9560 H       1  UNL1        0.0618
     42 H           5.0444    0.1468    0.6434 H       1  UNL1        0.0625
@<TRIPOS>BOND
     1     2     1    2
     2     3     2   am
     3     4     3    1
     4     4    28    1
     5     4    29    1
     6     5     4    1
     7     5    30    1
     8     5    31    1
     9     6     5    1
    10     7     6    1
    11     7    32    1
    12     7    33    1
    13     8     7    1
    14     8     3    1
    15     8    34    1
    16     8    35    1
    17     9     6    1
    18    10     9   ar
    19    11    10   ar
    20    12    11   ar
    21    13    12   ar
    22    13     9   ar
    23    14    12    1
    24    15    14   ar
    25    15    36    1
    26    16    15   ar
    27    16    37    1
    28    17    16   ar
    29    18    17   ar
    30    18    14   ar
    31    19    17    1
    32    20    19    2
    33    21    19    2
    34    22     2    1
    35    23    22   ar
    36    23    38    1
    37    24    23   ar
    38    24    39    1
    39    25    24   ar
    40    25    40    1
    41    26    25   ar
    42    26    41    1
    43    27    26   ar
    44    27    22   ar
    45    27    42    1
@<TRIPOS>MOLECULE
mol_606_akc_jbmc200802052
>588.sdf
 39 42 0 0 0
SMALL
GASTEIGER

@<TRIPOS>ATOM
      1 CL          0.9078    0.0586   -3.1071 Cl      1  UNL1       -0.0758
      2 C          -0.7025   -0.1256   -2.5407 C.ar    1  UNL1        0.0787
      3 C          -1.8435   -0.0689   -3.2962 C.ar    1  UNL1       -0.0355
      4 C          -3.0003   -0.2773   -2.4879 C.ar    1  UNL1       -0.0411
      5 C          -2.6922   -0.3734   -1.1402 C.ar    1  UNL1        0.0754
      6 S          -0.9912   -0.4026   -0.8978 S.2     1  UNL1       -0.0722
      7 C          -3.5666   -0.4566    0.0252 C.2     1  UNL1        0.2534
      8 O          -3.4045   -1.3065    0.8990 O.2     1  UNL1       -0.2694
      9 N          -4.5875    0.4965    0.1393 N.am    1  UNL1       -0.2941
     10 C          -4.8944    1.5312   -0.8589 C.3     1  UNL1        0.0308
     11 C          -5.3265    2.8587   -0.2268 C.3     1  UNL1        0.0299
     12 N          -6.4040    2.6117    0.7270 N.pl3   1  UNL1       -0.3052
     13 C          -6.0383    1.6968    1.8147 C.3     1  UNL1        0.0299
     14 C          -5.5887    0.3448    1.2126 C.3     1  UNL1        0.0308
     15 C          -7.4475    3.4731    0.8728 C.ar    1  UNL1        0.1846
     16 N          -8.1211    3.6857    1.9881 N.ar    1  UNL1       -0.1254
     17 N          -9.2041    4.5322    1.8224 N.ar    1  UNL1       -0.1364
     18 C          -9.3399    4.9064    0.5704 C.ar    1  UNL1        0.1687
     19 S          -8.1184    4.3379   -0.4713 S.2     1  UNL1       -0.0276
     20 C         -10.4359    5.6934    0.0859 C.ar    1  UNL1        0.1645
     21 C         -11.4982    6.2353    0.8012 C.ar    1  UNL1       -0.0114
     22 C         -12.3520    6.8865   -0.1251 C.ar    1  UNL1        0.0086
     23 C         -11.7581    6.7084   -1.3501 C.ar    1  UNL1        0.2803
     24 O         -10.6032    6.0044   -1.2443 O.2     1  UNL1       -0.4318
     25 N         -12.1350    7.1092   -2.6671 N.pl3   1  UNL1        0.0926
     26 O         -13.2015    7.7283   -2.7640 O.2     1  UNL1       -0.1231
     27 O         -11.3814    6.8145   -3.6006 O.2     1  UNL1       -0.1231
     28 H          -1.8557    0.1072   -4.3647 H       1  UNL1        0.0638
     29 H          -4.0141   -0.2901   -2.8731 H       1  UNL1        0.0631
     30 H          -4.0348    1.7470   -1.4933 H       1  UNL1        0.0480
     31 H          -5.7002    1.1332   -1.4878 H       1  UNL1        0.0480
     32 H          -4.4759    3.3109    0.2987 H       1  UNL1        0.0480
     33 H          -5.5990    3.5439   -1.0351 H       1  UNL1        0.0480
     34 H          -5.2162    2.1336    2.3959 H       1  UNL1        0.0480
     35 H          -6.8726    1.5139    2.5018 H       1  UNL1        0.0480
     36 H          -6.4533   -0.1558    0.7581 H       1  UNL1        0.0480
     37 H          -5.2174   -0.3058    2.0105 H       1  UNL1        0.0480
     38 H         -11.6355    6.1473    1.8710 H       1  UNL1        0.0657
     39 H         -13.2802    7.4074    0.0733 H       1  UNL1        0.0673
@<TRIPOS>BOND
     1     2     1    1
     2     3     2   ar
     3     3    28    1
     4     4     3   ar
     5     4    29    1
     6     5     4   ar
     7     6     5   ar
     8     6     2   ar
     9     7     5    1
    10     8     7    2
    11     9     7   am
    12    10     9    1
    13    10    30    1
    14    10    31    1
    15    11    10    1
    16    11    32    1
    17    11    33    1
    18    12    11    1
    19    13    12    1
    20    13    34    1
    21    13    35    1
    22    14    13    1
    23    14     9    1
    24    14    36    1
    25    14    37    1
    26    15    12    1
    27    16    15   ar
    28    17    16   ar
    29    18    17   ar
    30    19    18   ar
    31    19    15   ar
    32    20    18    1
    33    21    20   ar
    34    21    38    1
    35    22    21   ar
    36    22    39    1
    37    23    22   ar
    38    24    23   ar
    39    24    20   ar
    40    25    23    1
    41    26    25    2
    42    27    25    2
@<TRIPOS>MOLECULE
mol_607_akc_ptr2334
>589.sdf
 30 31 0 0 0
SMALL
GASTEIGER

@<TRIPOS>ATOM
      1 O           2.0767   -1.0515    1.0712 O.3     1  UNL1       -0.5066
      2 C           1.0666   -0.3094    0.5326 C.ar    1  UNL1        0.1209
      3 C           1.0992    1.0849    0.5583 C.ar    1  UNL1       -0.0128
      4 C           0.0508    1.8230   -0.0114 C.ar    1  UNL1       -0.0181
      5 C           0.0163    3.2959    0.0052 C.2     1  UNL1       -0.0538
      6 C           1.1022    4.0873   -0.0269 C.2     1  UNL1       -0.0539
      7 C           1.0626    5.5600   -0.0383 C.ar    1  UNL1       -0.0213
      8 C           0.0272    6.2972    0.5639 C.ar    1  UNL1       -0.0509
      9 C           0.0401    7.6974    0.5597 C.ar    1  UNL1       -0.0160
     10 C           1.1013    8.3624   -0.0379 C.ar    1  UNL1        0.1582
     11 O           1.1748    9.7269   -0.0710 O.3     1  UNL1       -0.5033
     12 C           2.1384    7.6426   -0.6225 C.ar    1  UNL1        0.1588
     13 O           3.1853    8.3031   -1.2001 O.3     1  UNL1       -0.5033
     14 C           2.1304    6.2534   -0.6257 C.ar    1  UNL1       -0.0094
     15 C          -1.0349    1.1327   -0.5746 C.ar    1  UNL1       -0.0128
     16 C          -1.0466   -0.2618   -0.5901 C.ar    1  UNL1        0.1209
     17 O          -2.0818   -0.9573   -1.1434 O.3     1  UNL1       -0.5066
     18 C           0.0003   -0.9892   -0.0414 C.ar    1  UNL1        0.0213
     19 H           2.7499   -0.4506    1.4301 H       1  UNL1        0.2921
     20 H           1.9333    1.5957    1.0284 H       1  UNL1        0.0660
     21 H          -0.9799    3.7311    0.0077 H       1  UNL1        0.0624
     22 H           2.0985    3.6558   -0.0840 H       1  UNL1        0.0624
     23 H          -0.7993    5.7902    1.0558 H       1  UNL1        0.0625
     24 H          -0.7749    8.2374    1.0307 H       1  UNL1        0.0655
     25 H           0.3812   10.0831    0.3642 H       1  UNL1        0.2923
     26 H           2.9774    9.2505   -1.0728 H       1  UNL1        0.2923
     27 H           2.9559    5.7235   -1.0928 H       1  UNL1        0.0661
     28 H          -1.8619    1.6881   -1.0077 H       1  UNL1        0.0660
     29 H          -2.7258   -0.3281   -1.5066 H       1  UNL1        0.2921
     30 H          -0.0154   -2.0743   -0.0580 H       1  UNL1        0.0691
@<TRIPOS>BOND
     1     1    19    1
     2     2     1    1
     3     3     2   ar
     4     3    20    1
     5     4     3   ar
     6     5     4    1
     7     5    21    1
     8     6     5    2
     9     6    22    1
    10     7     6    1
    11     8     7   ar
    12     8    23    1
    13     9     8   ar
    14     9    24    1
    15    10     9   ar
    16    11    10    1
    17    11    25    1
    18    12    10   ar
    19    13    12    1
    20    13    26    1
    21    14    12   ar
    22    14     7   ar
    23    14    27    1
    24    15     4   ar
    25    15    28    1
    26    16    15   ar
    27    17    16    1
    28    17    29    1
    29    18    16   ar
    30    18     2   ar
    31    18    30    1
@<TRIPOS>MOLECULE
mol_608_akc_qua21355
>590.sdf
 47 48 0 0 0
SMALL
GASTEIGER

@<TRIPOS>ATOM
      1 C           5.9870    1.5963   -3.2459 C.3     1  UNL1       -0.0646
      2 C           5.5550    0.8769   -1.9768 C.3     1  UNL1       -0.0450
      3 C           6.7152    0.4645   -1.0504 C.3     1  UNL1        0.0325
      4 C           7.5192    1.6745   -0.5665 C.3     1  UNL1       -0.0541
      5 C           6.1593   -0.3212    0.1466 C.2     1  UNL1        0.2164
      6 O           4.9604   -0.4973    0.3377 O.2     1  UNL1       -0.2755
      7 N           7.1203   -0.8561    0.9748 N.am    1  UNL1       -0.3037
      8 C           6.7648   -1.3972    2.2849 C.3     1  UNL1        0.1004
      9 C           7.2307   -2.8339    2.4049 C.3     1  UNL1       -0.0177
     10 C           6.8687   -3.3331    3.7852 C.3     1  UNL1        0.0267
     11 C           7.5312   -2.4994    4.8603 C.2     1  UNL1        0.2219
     12 O           7.9103   -3.0379    5.9003 O.2     1  UNL1       -0.2752
     13 N           7.6431   -1.1304    4.6128 N.am    1  UNL1       -0.2403
     14 C           8.2520   -0.2904    5.6565 C.3     1  UNL1        0.0263
     15 C           7.2753    0.7572    6.2113 C.3     1  UNL1       -0.0113
     16 C           7.8747    1.6116    7.3027 C.ar    1  UNL1       -0.0459
     17 C           8.5767    2.7851    6.9890 C.ar    1  UNL1       -0.0585
     18 C           9.0819    3.6027    8.0011 C.ar    1  UNL1       -0.0615
     19 C           8.9016    3.2503    9.3388 C.ar    1  UNL1       -0.0617
     20 C           8.2297    2.0760    9.6611 C.ar    1  UNL1       -0.0615
     21 C           7.7214    1.2560    8.6496 C.ar    1  UNL1       -0.0585
     22 C           7.4209   -0.5268    3.3703 C.2     1  UNL1        0.2421
     23 O           7.7236    0.6478    3.1410 O.2     1  UNL1       -0.2731
     24 H           5.1153    1.7749   -3.8857 H       1  UNL1        0.0230
     25 H           6.4318    2.5711   -3.0262 H       1  UNL1        0.0230
     26 H           6.7074    1.0012   -3.8127 H       1  UNL1        0.0230
     27 H           4.8485    1.5143   -1.4308 H       1  UNL1        0.0270
     28 H           4.9966   -0.0217   -2.2694 H       1  UNL1        0.0270
     29 H           7.3820   -0.2105   -1.6016 H       1  UNL1        0.0391
     30 H           6.8916    2.3529    0.0211 H       1  UNL1        0.0237
     31 H           8.3606    1.3778    0.0678 H       1  UNL1        0.0237
     32 H           7.9454    2.2347   -1.4037 H       1  UNL1        0.0237
     33 H           8.0691   -0.5196    0.8716 H       1  UNL1        0.1495
     34 H           5.6808   -1.3354    2.4359 H       1  UNL1        0.0595
     35 H           8.3152   -2.9031    2.2473 H       1  UNL1        0.0292
     36 H           6.7527   -3.4574    1.6404 H       1  UNL1        0.0292
     37 H           7.2027   -4.3712    3.8927 H       1  UNL1        0.0359
     38 H           5.7863   -3.3082    3.9508 H       1  UNL1        0.0359
     39 H           8.6249   -0.9100    6.4794 H       1  UNL1        0.0473
     40 H           9.1279    0.2061    5.2207 H       1  UNL1        0.0473
     41 H           6.9158    1.4173    5.4131 H       1  UNL1        0.0329
     42 H           6.3757    0.2565    6.5940 H       1  UNL1        0.0329
     43 H           8.7145    3.0817    5.9506 H       1  UNL1        0.0620
     44 H           9.6063    4.5211    7.7489 H       1  UNL1        0.0618
     45 H           9.2819    3.8960   10.1275 H       1  UNL1        0.0618
     46 H           8.0880    1.7991   10.7035 H       1  UNL1        0.0618
     47 H           7.1888    0.3476    8.9217 H       1  UNL1        0.0620
@<TRIPOS>BOND
     1     1    24    1
     2     1    25    1
     3     1    26    1
     4     2     1    1
     5     2    27    1
     6     2    28    1
     7     3     2    1
     8     3    29    1
     9     4     3    1
    10     4    30    1
    11     4    31    1
    12     4    32    1
    13     5     3    1
    14     6     5    2
    15     7     5   am
    16     7    33    1
    17     9     8    1
    18     9    35    1
    19     9    36    1
    20    10     9    1
    21    10    37    1
    22    10    38    1
    23    11    10    1
    24    12    11    2
    25    13    11   am
    26    14    13    1
    27    14    39    1
    28    14    40    1
    29    15    14    1
    30    15    41    1
    31    15    42    1
    32    16    15    1
    33    17    16   ar
    34    17    43    1
    35    18    17   ar
    36    18    44    1
    37    19    18   ar
    38    19    45    1
    39    20    19   ar
    40    20    46    1
    41    21    20   ar
    42    21    16   ar
    43    21    47    1
    44    22    13   am
    45    22     8    1
    46    23    22    2
    47     8    34    1
    48     8     7    1
@<TRIPOS>MOLECULE
mol_609_akc_jm701166b
>591.sdf
 84 84 0 0 0
SMALL
GASTEIGER

@<TRIPOS>ATOM
      1 C          14.4497   10.2034   -5.2826 C.3     1  UNL1       -0.0417
      2 N          13.6968    9.5960   -4.0995 N.4     1  UNL1        0.2385
      3 C          13.8005   10.5409   -2.9113 C.3     1  UNL1       -0.0417
      4 C          12.2253    9.4491   -4.4985 C.3     1  UNL1       -0.0417
      5 C          14.3401    8.2232   -3.7963 C.3     1  UNL1       -0.0063
      6 C          13.7496    7.4818   -2.5954 C.3     1  UNL1        0.0989
      7 O          12.3808    7.1729   -2.8138 O.3     1  UNL1       -0.2813
      8 P          11.6870    6.3599   -1.4534 P.3     1  UNL1        0.4751
      9 O          11.3528    7.8051   -0.7672 O.3     1  UNL1       -0.3025
     10 O          10.4502    6.0662   -2.3008 O.2     1  UNL1       -0.2273
     11 O          10.9931    5.5470   -0.0930 O.3     1  UNL1       -0.2867
     12 C          11.2193    4.1474   -0.1724 C.3     1  UNL1        0.0591
     13 C          10.4913    3.4382    0.9561 C.3     1  UNL1       -0.0289
     14 C          10.8804    1.9618    1.0555 C.3     1  UNL1       -0.0510
     15 C          12.3866    1.7015    1.2448 C.3     1  UNL1       -0.0527
     16 C          12.9341    2.4988    2.4282 C.3     1  UNL1       -0.0502
     17 C          14.4276    2.3207    2.7679 C.3     1  UNL1       -0.0410
     18 C          14.8903    0.8462    2.8528 C.3     1  UNL1       -0.0502
     19 C          13.9442   -0.1036    3.6043 C.3     1  UNL1       -0.0528
     20 C          14.5451   -0.6907    4.8755 C.3     1  UNL1       -0.0530
     21 C          13.5502   -1.6419    5.5615 C.3     1  UNL1       -0.0531
     22 C          13.5513   -1.4790    7.0836 C.3     1  UNL1       -0.0531
     23 C          12.6587   -0.3147    7.5463 C.3     1  UNL1       -0.0531
     24 C          13.3985    0.6566    8.4661 C.3     1  UNL1       -0.0531
     25 C          12.5026    1.8278    8.9008 C.3     1  UNL1       -0.0531
     26 C          13.1935    3.1806    8.6972 C.3     1  UNL1       -0.0531
     27 C          13.2377    3.5905    7.2196 C.3     1  UNL1       -0.0531
     28 C          14.4227    4.5134    6.9292 C.3     1  UNL1       -0.0531
     29 C          14.3990    5.1870    5.5531 C.3     1  UNL1       -0.0530
     30 C          13.9613    4.3288    4.3670 C.3     1  UNL1       -0.0528
     31 C          14.8574    3.1244    4.0376 C.3     1  UNL1       -0.0502
     32 H          14.0070   11.1764   -5.5164 H       1  UNL1        0.0778
     33 H          15.4992   10.3238   -4.9995 H       1  UNL1        0.0778
     34 H          14.3564    9.5251   -6.1357 H       1  UNL1        0.0778
     35 H          13.4283   11.5232   -3.2173 H       1  UNL1        0.0778
     36 H          13.1894   10.1547   -2.0912 H       1  UNL1        0.0778
     37 H          14.8513   10.6057   -2.6133 H       1  UNL1        0.0778
     38 H          12.1411    8.6325   -5.2220 H       1  UNL1        0.0778
     39 H          11.6278    9.2533   -3.6026 H       1  UNL1        0.0778
     40 H          11.8945   10.3887   -4.9433 H       1  UNL1        0.0778
     41 H          14.2239    7.6210   -4.7048 H       1  UNL1        0.0838
     42 H          15.4076    8.4059   -3.6254 H       1  UNL1        0.0838
     43 H          14.2921    6.5390   -2.4586 H       1  UNL1        0.0619
     44 H          13.8606    8.0609   -1.6740 H       1  UNL1        0.0619
     45 H          10.8710    3.7647   -1.1379 H       1  UNL1        0.0565
     46 H          12.3036    4.0002   -0.1207 H       1  UNL1        0.0565
     47 H          10.6703    3.9560    1.9058 H       1  UNL1        0.0287
     48 H           9.4101    3.5228    0.7957 H       1  UNL1        0.0287
     49 H          10.3378    1.5180    1.8994 H       1  UNL1        0.0266
     50 H          10.5428    1.4341    0.1553 H       1  UNL1        0.0266
     51 H          12.5247    0.6265    1.3935 H       1  UNL1        0.0265
     52 H          12.9382    1.9555    0.3328 H       1  UNL1        0.0265
     53 H          12.7941    3.5611    2.2002 H       1  UNL1        0.0268
     54 H          12.3176    2.2876    3.3083 H       1  UNL1        0.0268
     55 H          14.9863    2.7661    1.9314 H       1  UNL1        0.0301
     56 H          14.9792    0.4724    1.8235 H       1  UNL1        0.0268
     57 H          15.9061    0.7988    3.2653 H       1  UNL1        0.0268
     58 H          13.0072    0.3889    3.8751 H       1  UNL1        0.0265
     59 H          13.6759   -0.9289    2.9326 H       1  UNL1        0.0265
     60 H          15.4536   -1.2530    4.6290 H       1  UNL1        0.0265
     61 H          14.8412    0.1213    5.5466 H       1  UNL1        0.0265
     62 H          12.5279   -1.4998    5.1794 H       1  UNL1        0.0265
     63 H          13.8270   -2.6711    5.3120 H       1  UNL1        0.0265
     64 H          13.1589   -2.4008    7.5299 H       1  UNL1        0.0265
     65 H          14.5785   -1.3709    7.4501 H       1  UNL1        0.0265
     66 H          12.2622    0.2396    6.6874 H       1  UNL1        0.0265
     67 H          11.7915   -0.7229    8.0816 H       1  UNL1        0.0265
     68 H          13.7449    0.1218    9.3587 H       1  UNL1        0.0265
     69 H          14.2968    1.0189    7.9530 H       1  UNL1        0.0265
     70 H          11.5421    1.8232    8.3727 H       1  UNL1        0.0265
     71 H          12.2728    1.7108    9.9673 H       1  UNL1        0.0265
     72 H          12.6458    3.9500    9.2551 H       1  UNL1        0.0265
     73 H          14.2019    3.1395    9.1251 H       1  UNL1        0.0265
     74 H          13.3124    2.7031    6.5829 H       1  UNL1        0.0265
     75 H          12.2937    4.0854    6.9602 H       1  UNL1        0.0265
     76 H          14.4609    5.3061    7.6877 H       1  UNL1        0.0265
     77 H          15.3520    3.9403    7.0319 H       1  UNL1        0.0265
     78 H          13.7096    6.0385    5.6089 H       1  UNL1        0.0265
     79 H          15.3899    5.6133    5.3502 H       1  UNL1        0.0265
     80 H          12.9378    3.9901    4.5600 H       1  UNL1        0.0265
     81 H          13.9129    4.9860    3.4900 H       1  UNL1        0.0265
     82 H          14.9016    2.4557    4.9024 H       1  UNL1        0.0268
     83 H          15.8841    3.4823    3.8782 H       1  UNL1        0.0268
     84 H          10.4003    7.9610   -0.9435 H       1  UNL1        0.2220
@<TRIPOS>UNITY_ATOM_ATTR
2 1
charge 1
@<TRIPOS>BOND
     1     1    32    1
     2     1    33    1
     3     1    34    1
     4     2     1    1
     5     3     2    1
     6     3    35    1
     7     3    36    1
     8     3    37    1
     9     4     2    1
    10     4    38    1
    11     4    39    1
    12     4    40    1
    13     5     2    1
    14     5    41    1
    15     5    42    1
    16     6     5    1
    17     6    43    1
    18     6    44    1
    19     7     6    1
    20     8     7    1
    21     9     8    1
    22    10     8    2
    23    11     8    1
    24    12    11    1
    25    12    45    1
    26    12    46    1
    27    13    12    1
    28    13    47    1
    29    13    48    1
    30    14    13    1
    31    14    49    1
    32    14    50    1
    33    15    14    1
    34    15    51    1
    35    15    52    1
    36    16    15    1
    37    16    53    1
    38    16    54    1
    39    17    16    1
    40    17    55    1
    41    18    17    1
    42    18    56    1
    43    18    57    1
    44    19    18    1
    45    19    58    1
    46    19    59    1
    47    20    19    1
    48    20    60    1
    49    20    61    1
    50    21    20    1
    51    21    62    1
    52    21    63    1
    53    22    21    1
    54    22    64    1
    55    22    65    1
    56    23    22    1
    57    23    66    1
    58    23    67    1
    59    24    23    1
    60    24    68    1
    61    24    69    1
    62    25    24    1
    63    25    70    1
    64    25    71    1
    65    26    25    1
    66    26    72    1
    67    26    73    1
    68    27    26    1
    69    27    74    1
    70    27    75    1
    71    28    27    1
    72    28    76    1
    73    28    77    1
    74    29    28    1
    75    29    78    1
    76    29    79    1
    77    30    29    1
    78    30    80    1
    79    30    81    1
    80    31    30    1
    81    31    17    1
    82    31    82    1
    83    31    83    1
    84     9    84    1
@<TRIPOS>MOLECULE
mol_60_akc_jejmech201803014
>60.sdf
 70 74 0 0 0
SMALL
GASTEIGER

@<TRIPOS>ATOM
      1 C           2.5910    2.8146   -2.5811 C.3     1  UNL1        0.0788
      2 O           1.7891    3.3256   -1.5231 O.3     1  UNL1       -0.4951
      3 C           2.3560    3.3933   -0.2810 C.ar    1  UNL1        0.1201
      4 C           3.6120    2.9139    0.0913 C.ar    1  UNL1       -0.0193
      5 C           4.1040    3.1358    1.3932 C.ar    1  UNL1       -0.0490
      6 C           3.3546    3.8517    2.3429 C.ar    1  UNL1        0.0026
      7 C           2.0621    4.2588    1.9624 C.ar    1  UNL1       -0.0490
      8 C           1.5731    4.0384    0.6718 C.ar    1  UNL1       -0.0193
      9 C           3.9567    4.4146    3.5545 C.ar    1  UNL1        0.0957
     10 C           5.0419    3.9373    4.3172 C.ar    1  UNL1        0.0738
     11 N           5.3004    2.7513    4.9736 N.ar    1  UNL1       -0.3525
     12 C           6.2405    2.9753    5.9768 C.ar    1  UNL1        0.0475
     13 C           6.8379    4.2068    5.7184 C.ar    1  UNL1        0.0075
     14 C           7.9093    4.6537    6.5161 C.ar    1  UNL1       -0.0520
     15 C           8.2681    3.9185    7.6439 C.ar    1  UNL1       -0.0611
     16 C           7.5616    2.7645    7.9772 C.ar    1  UNL1       -0.0598
     17 C           6.5612    2.2508    7.1352 C.ar    1  UNL1       -0.0378
     18 C           5.9707    4.8681    4.8120 C.ar    1  UNL1        0.0117
     19 C           5.6841    6.2318    4.6145 C.ar    1  UNL1       -0.0214
     20 C           4.3167    6.3370    4.7762 C.ar    1  UNL1        0.1267
     21 N           3.5820    5.7010    3.8553 N.ar    1  UNL1       -0.2400
     22 C           3.7760    6.1617    6.2033 C.2     1  UNL1        0.2625
     23 O           2.8578    5.3829    6.4600 O.2     1  UNL1       -0.2685
     24 N           4.3440    6.8535    7.2496 N.am    1  UNL1       -0.3086
     25 C           5.2476    7.9887    7.1988 C.3     1  UNL1        0.0275
     26 C           4.6224    9.1920    6.4806 C.3     1  UNL1        0.0274
     27 N           5.2991   10.4403    6.7962 N.pl3   1  UNL1       -0.3118
     28 C           6.4621   10.7154    6.0989 C.ar    1  UNL1        0.2211
     29 N           7.2875    9.7509    5.7079 N.ar    1  UNL1       -0.1809
     30 C           8.4091   10.1476    5.1247 C.ar    1  UNL1        0.2232
     31 N           8.6917   11.4226    4.8999 N.ar    1  UNL1       -0.1807
     32 C           7.8112   12.3257    5.2975 C.ar    1  UNL1        0.2232
     33 N           6.6696   11.9957    5.8950 N.ar    1  UNL1       -0.1809
     34 N           8.0648   13.6834    5.0595 N.pl3   1  UNL1       -0.3056
     35 C           7.3202   14.5961    5.9159 C.3     1  UNL1        0.0031
     36 C           9.4739   13.9820    4.8612 C.3     1  UNL1        0.0031
     37 N           9.3716    9.1939    4.7724 N.pl3   1  UNL1       -0.3056
     38 C           8.8797    7.8578    4.5213 C.3     1  UNL1        0.0031
     39 C          10.4408    9.6732    3.9113 C.3     1  UNL1        0.0031
     40 H           3.5245    3.3737   -2.6901 H       1  UNL1        0.0660
     41 H           2.7828    1.7464   -2.4367 H       1  UNL1        0.0660
     42 H           2.0251    2.9309   -3.5129 H       1  UNL1        0.0660
     43 H           4.2553    2.4065   -0.6201 H       1  UNL1        0.0654
     44 H           5.1220    2.8236    1.6188 H       1  UNL1        0.0625
     45 H           1.4532    4.8375    2.6566 H       1  UNL1        0.0625
     46 H           0.5952    4.4276    0.3972 H       1  UNL1        0.0654
     47 H           4.6702    1.9625    4.9728 H       1  UNL1        0.1660
     48 H           8.4009    5.5949    6.3125 H       1  UNL1        0.0624
     49 H           9.0555    4.2943    8.2963 H       1  UNL1        0.0618
     50 H           7.7881    2.2678    8.9143 H       1  UNL1        0.0618
     51 H           6.0074    1.3654    7.4253 H       1  UNL1        0.0638
     52 H           6.0373    6.6061    3.6457 H       1  UNL1        0.0647
     53 H           3.9482    6.6020    8.1481 H       1  UNL1        0.1491
     54 H           5.4788    8.2449    8.2393 H       1  UNL1        0.0477
     55 H           6.1852    7.6732    6.7372 H       1  UNL1        0.0477
     56 H           4.5699    9.0358    5.3959 H       1  UNL1        0.0477
     57 H           3.5832    9.2893    6.8169 H       1  UNL1        0.0477
     58 H           4.7213   11.2646    6.7199 H       1  UNL1        0.1490
     59 H           7.6082   14.4809    6.9671 H       1  UNL1        0.0428
     60 H           7.5199   15.6321    5.6248 H       1  UNL1        0.0428
     61 H           6.2373   14.4549    5.8213 H       1  UNL1        0.0428
     62 H          10.0741   13.6838    5.7288 H       1  UNL1        0.0428
     63 H           9.8652   13.4870    3.9636 H       1  UNL1        0.0428
     64 H           9.6185   15.0572    4.7110 H       1  UNL1        0.0428
     65 H           8.3916    7.7897    3.5422 H       1  UNL1        0.0428
     66 H           9.7116    7.1436    4.5357 H       1  UNL1        0.0428
     67 H           8.1798    7.5282    5.2919 H       1  UNL1        0.0428
     68 H          10.0515   10.0840    2.9717 H       1  UNL1        0.0428
     69 H          11.0437   10.4362    4.4190 H       1  UNL1        0.0428
     70 H          11.1232    8.8554    3.6567 H       1  UNL1        0.0428
@<TRIPOS>BOND
     1     1    40    1
     2     1    41    1
     3     1    42    1
     4     2     1    1
     5     3     2    1
     6     4     3   ar
     7     4    43    1
     8     5     4   ar
     9     5    44    1
    10     6     5   ar
    11     7     6   ar
    12     7    45    1
    13     8     7   ar
    14     8     3   ar
    15     8    46    1
    16     9     6    1
    17    10     9   ar
    18    11    10   ar
    19    11    47    1
    20    12    11   ar
    21    13    12   ar
    22    14    13   ar
    23    14    48    1
    24    15    14   ar
    25    15    49    1
    26    16    15   ar
    27    16    50    1
    28    17    16   ar
    29    17    12   ar
    30    17    51    1
    31    18    13   ar
    32    18    10   ar
    33    19    18   ar
    34    19    52    1
    35    20    19   ar
    36    21    20   ar
    37    21     9   ar
    38    22    20    1
    39    23    22    2
    40    24    22   am
    41    24    53    1
    42    25    24    1
    43    25    54    1
    44    25    55    1
    45    26    25    1
    46    26    56    1
    47    26    57    1
    48    27    26    1
    49    27    58    1
    50    28    27    1
    51    29    28   ar
    52    30    29   ar
    53    31    30   ar
    54    32    31   ar
    55    33    32   ar
    56    33    28   ar
    57    34    32    1
    58    35    34    1
    59    35    59    1
    60    35    60    1
    61    35    61    1
    62    36    34    1
    63    36    62    1
    64    36    63    1
    65    36    64    1
    66    37    30    1
    67    38    37    1
    68    38    65    1
    69    38    66    1
    70    38    67    1
    71    39    37    1
    72    39    68    1
    73    39    69    1
    74    39    70    1
@<TRIPOS>MOLECULE
mol_610_akc_jm7012166
>592.sdf
 58 62 0 0 0
SMALL
GASTEIGER

@<TRIPOS>ATOM
      1 C           1.0779    0.5357   -0.1599 C.3     1  UNL1       -0.0560
      2 C           2.5357    0.1101    0.1061 C.3     1  UNL1       -0.0127
      3 C           3.3998    1.3785    0.2675 C.3     1  UNL1       -0.0560
      4 C           2.5908   -0.6292    1.4664 C.3     1  UNL1       -0.0560
      5 C           2.9833   -0.7812   -1.0671 C.ar    1  UNL1       -0.0413
      6 C           3.5910   -0.2637   -2.2246 C.ar    1  UNL1       -0.0561
      7 C           3.9205   -1.0680   -3.3319 C.ar    1  UNL1       -0.0375
      8 C           3.6127   -2.4289   -3.2611 C.ar    1  UNL1        0.0472
      9 N           3.7791   -3.4479   -4.1754 N.ar    1  UNL1       -0.3539
     10 C           3.3143   -4.6393   -3.6621 C.ar    1  UNL1        0.0530
     11 C           2.8835   -4.3814   -2.3756 C.ar    1  UNL1       -0.0056
     12 C           2.3679   -5.4138   -1.4532 C.3     1  UNL1        0.0520
     13 C           3.4015   -6.4928   -1.2239 C.2     1  UNL1        0.2216
     14 O           3.7899   -6.7813   -0.0883 O.2     1  UNL1       -0.2751
     15 N           3.8174   -7.2654   -2.2746 N.am    1  UNL1       -0.2847
     16 C           3.5672   -7.1402   -3.6576 C.ar    1  UNL1        0.0426
     17 C           3.6007   -8.3427   -4.3719 C.ar    1  UNL1       -0.0393
     18 C           3.3248   -8.3708   -5.7385 C.ar    1  UNL1       -0.0528
     19 C           3.0697   -7.1887   -6.4403 C.ar    1  UNL1       -0.0242
     20 C           2.7601   -7.1848   -7.8790 C.2     1  UNL1       -0.0509
     21 C           3.2367   -8.1031   -8.7317 C.2     1  UNL1       -0.0137
     22 C           2.9028   -8.0529  -10.1793 C.2     1  UNL1        0.1875
     23 O           2.4587   -7.0466  -10.7168 O.2     1  UNL1       -0.2872
     24 C           3.1939   -9.2690  -10.9726 C.ar    1  UNL1        0.0397
     25 C           3.0808  -10.5450  -10.4360 C.ar    1  UNL1        0.0383
     26 N           3.3843  -11.6794  -11.1106 N.ar    1  UNL1       -0.2626
     27 C           3.7953  -11.5314  -12.3892 C.ar    1  UNL1        0.0276
     28 C           3.9032  -10.3044  -13.0259 C.ar    1  UNL1       -0.0429
     29 C           3.5893   -9.1531  -12.3060 C.ar    1  UNL1       -0.0480
     30 C           3.0661   -5.9776   -5.7336 C.ar    1  UNL1       -0.0437
     31 C           3.3191   -5.9322   -4.3481 C.ar    1  UNL1        0.0203
     32 C           3.0295   -2.9906   -2.1328 C.ar    1  UNL1        0.0042
     33 C           2.7115   -2.1608   -1.0417 C.ar    1  UNL1       -0.0486
     34 H           0.6985    1.1771    0.6443 H       1  UNL1        0.0238
     35 H           0.9898    1.0928   -1.1000 H       1  UNL1        0.0238
     36 H           0.4125   -0.3332   -0.2319 H       1  UNL1        0.0238
     37 H           3.0779    1.9626    1.1385 H       1  UNL1        0.0238
     38 H           4.4556    1.1224    0.4120 H       1  UNL1        0.0238
     39 H           3.3259    2.0462   -0.5968 H       1  UNL1        0.0238
     40 H           1.8833   -1.4636    1.5207 H       1  UNL1        0.0238
     41 H           3.5945   -1.0249    1.6611 H       1  UNL1        0.0238
     42 H           2.3292    0.0417    2.2930 H       1  UNL1        0.0238
     43 H           3.8111    0.7981   -2.3063 H       1  UNL1        0.0621
     44 H           4.3842   -0.6333   -4.2119 H       1  UNL1        0.0638
     45 H           4.1950   -3.3306   -5.0859 H       1  UNL1        0.1659
     46 H           1.4580   -5.8756   -1.8545 H       1  UNL1        0.0408
     47 H           2.1043   -4.9823   -0.4817 H       1  UNL1        0.0408
     48 H           4.3158   -8.0887   -1.9597 H       1  UNL1        0.1548
     49 H           3.7858   -9.2849   -3.8604 H       1  UNL1        0.0636
     50 H           3.2931   -9.3388   -6.2316 H       1  UNL1        0.0624
     51 H           2.1249   -6.3777   -8.2412 H       1  UNL1        0.0625
     52 H           3.8956   -8.8979   -8.4042 H       1  UNL1        0.0656
     53 H           2.7263  -10.7167   -9.4238 H       1  UNL1        0.0837
     54 H           4.0416  -12.4553  -12.9058 H       1  UNL1        0.0829
     55 H           4.2297  -10.2457  -14.0587 H       1  UNL1        0.0633
     56 H           3.6658   -8.1754  -12.7767 H       1  UNL1        0.0626
     57 H           2.8445   -5.0560   -6.2690 H       1  UNL1        0.0631
     58 H           2.2251   -2.6217   -0.1902 H       1  UNL1        0.0627
@<TRIPOS>BOND
     1     1    34    1
     2     1    35    1
     3     1    36    1
     4     2     1    1
     5     3     2    1
     6     3    37    1
     7     3    38    1
     8     3    39    1
     9     4     2    1
    10     4    40    1
    11     4    41    1
    12     4    42    1
    13     5     2    1
    14     6     5   ar
    15     6    43    1
    16     7     6   ar
    17     7    44    1
    18     8     7   ar
    19     9     8   ar
    20     9    45    1
    21    10     9   ar
    22    11    10   ar
    23    12    11    1
    24    12    46    1
    25    12    47    1
    26    13    12    1
    27    14    13    2
    28    15    13   am
    29    15    48    1
    30    16    15    1
    31    17    16   ar
    32    17    49    1
    33    18    17   ar
    34    18    50    1
    35    19    18   ar
    36    20    19    1
    37    20    51    1
    38    21    20    2
    39    21    52    1
    40    22    21    1
    41    23    22    2
    42    24    22    1
    43    25    24   ar
    44    25    53    1
    45    26    25   ar
    46    27    26   ar
    47    27    54    1
    48    28    27   ar
    49    28    55    1
    50    29    28   ar
    51    29    24   ar
    52    29    56    1
    53    30    19   ar
    54    30    57    1
    55    31    30   ar
    56    31    10    1
    57    31    16   ar
    58    32    11   ar
    59    32     8   ar
    60    33    32   ar
    61    33     5   ar
    62    33    58    1
@<TRIPOS>MOLECULE
mol_611_akc_ge_12591
>593.sdf
 34 36 0 0 0
SMALL
GASTEIGER

@<TRIPOS>ATOM
      1 O           1.0789   -0.0912    0.3865 O.3     1  UNL1       -0.3749
      2 C           2.4891   -0.0399    0.1062 C.3     1  UNL1        0.1454
      3 C           2.9849    0.5484    1.4591 C.ar    1  UNL1       -0.0070
      4 C           3.4212   -0.2803    2.5167 C.ar    1  UNL1       -0.0538
      5 C           3.8084    0.2516    3.7516 C.ar    1  UNL1       -0.0430
      6 C           3.7512    1.6229    3.9639 C.ar    1  UNL1        0.0410
      7 CL          4.2289    2.2769    5.4808 Cl      1  UNL1       -0.0835
      8 C           3.2886    2.4661    2.9594 C.ar    1  UNL1       -0.0430
      9 C           2.8877    1.9313    1.7297 C.ar    1  UNL1       -0.0538
     10 C           2.9811   -1.4632   -0.1321 C.ar    1  UNL1        0.0290
     11 C           2.1515   -2.5717   -0.0983 C.ar    1  UNL1        0.0373
     12 N           2.5769   -3.8449   -0.2489 N.ar    1  UNL1       -0.2433
     13 C           3.8926   -4.0017   -0.4438 C.ar    1  UNL1        0.1159
     14 N           4.7988   -3.0172   -0.5059 N.ar    1  UNL1       -0.2433
     15 C           4.3151   -1.7664   -0.3517 C.ar    1  UNL1        0.0373
     16 C           2.7884    0.8310   -1.1483 C.ar    1  UNL1        0.0112
     17 C           3.9683    1.6124   -1.2049 C.ar    1  UNL1       -0.0538
     18 C           4.2650    2.4286   -2.3021 C.ar    1  UNL1       -0.0613
     19 C           3.4110    2.4635   -3.3947 C.ar    1  UNL1       -0.0604
     20 C           2.2762    1.6595   -3.4012 C.ar    1  UNL1       -0.0430
     21 C           1.9747    0.8420   -2.3022 C.ar    1  UNL1        0.0475
     22 CL          0.5594   -0.1400   -2.4653 Cl      1  UNL1       -0.0831
     23 H           0.6067    0.4115   -0.2958 H       1  UNL1        0.2115
     24 H           3.4427   -1.3638    2.4143 H       1  UNL1        0.0622
     25 H           4.1353   -0.4166    4.5445 H       1  UNL1        0.0632
     26 H           3.2205    3.5372    3.1297 H       1  UNL1        0.0632
     27 H           2.4879    2.6152    0.9830 H       1  UNL1        0.0622
     28 H           1.0825   -2.4779    0.0730 H       1  UNL1        0.0834
     29 H           4.2566   -5.0171   -0.5543 H       1  UNL1        0.1047
     30 H           5.0783   -0.9935   -0.3873 H       1  UNL1        0.0834
     31 H           4.6816    1.6078   -0.3796 H       1  UNL1        0.0622
     32 H           5.1670    3.0366   -2.2984 H       1  UNL1        0.0618
     33 H           3.6343    3.1013   -4.2465 H       1  UNL1        0.0618
     34 H           1.6263    1.6698   -4.2738 H       1  UNL1        0.0632
@<TRIPOS>BOND
     1     1    23    1
     2     2     1    1
     3     3     2    1
     4     4     3   ar
     5     4    24    1
     6     5     4   ar
     7     5    25    1
     8     6     5   ar
     9     7     6    1
    10     8     6   ar
    11     8    26    1
    12     9     8   ar
    13     9     3   ar
    14     9    27    1
    15    10     2    1
    16    11    10   ar
    17    11    28    1
    18    12    11   ar
    19    13    12   ar
    20    13    29    1
    21    14    13   ar
    22    15    14   ar
    23    15    10   ar
    24    15    30    1
    25    16     2    1
    26    17    16   ar
    27    17    31    1
    28    18    17   ar
    29    18    32    1
    30    19    18   ar
    31    19    33    1
    32    20    19   ar
    33    20    34    1
    34    21    20   ar
    35    21    16   ar
    36    22    21    1
@<TRIPOS>MOLECULE
mol_612_akc_jactatropica201311003
>594.sdf
 59 60 0 0 0
SMALL
GASTEIGER

@<TRIPOS>ATOM
      1 C           1.0343   -0.2400    0.0681 C.3     1  UNL1       -0.0245
      2 C           2.5424   -0.0968   -0.0005 C.3     1  UNL1       -0.0348
      3 N           2.9906    0.8151   -1.1362 N.4     1  UNL1        0.2348
      4 C           2.3454    2.1889   -1.1477 C.3     1  UNL1       -0.0348
      5 C           2.8049    3.0659    0.0012 C.3     1  UNL1       -0.0245
      6 C           4.5110    0.8083   -1.2018 C.3     1  UNL1       -0.0319
      7 C           5.0493    1.5928   -2.3910 C.3     1  UNL1       -0.0125
      8 C           6.5788    1.5290   -2.4172 C.3     1  UNL1       -0.0482
      9 C           7.1324    2.3532   -3.5732 C.3     1  UNL1       -0.0515
     10 C           8.6642    2.3428   -3.6154 C.3     1  UNL1       -0.0375
     11 C           9.1373    3.2607   -4.7425 C.3     1  UNL1        0.0092
     12 N          10.5994    3.2936   -4.7935 N.pl3   1  UNL1       -0.3421
     13 C          11.1377    3.9866   -5.9331 C.ar    1  UNL1        0.0569
     14 C          12.3598    3.4792   -6.4081 C.ar    1  UNL1        0.0030
     15 C          13.0192    4.0677   -7.4813 C.ar    1  UNL1        0.1225
     16 O          14.1885    3.4618   -7.8490 O.3     1  UNL1       -0.4950
     17 C          14.8988    4.0317   -8.9429 C.3     1  UNL1        0.0788
     18 C          12.4551    5.1875   -8.0816 C.ar    1  UNL1       -0.0104
     19 C          11.2531    5.7632   -7.5995 C.ar    1  UNL1        0.0086
     20 C          10.6796    6.9180   -8.1954 C.ar    1  UNL1       -0.0397
     21 C          11.2587    7.5660   -9.4257 C.3     1  UNL1       -0.0390
     22 C           9.5344    7.4800   -7.6337 C.ar    1  UNL1       -0.0401
     23 C           8.9957    6.8816   -6.5214 C.ar    1  UNL1        0.0286
     24 N           9.5003    5.7672   -5.9602 N.ar    1  UNL1       -0.2531
     25 C          10.6049    5.1814   -6.4837 C.ar    1  UNL1        0.0922
     26 H           0.7723   -1.0587    0.7461 H       1  UNL1        0.0281
     27 H           0.5656    0.6653    0.4671 H       1  UNL1        0.0281
     28 H           0.6024   -0.4584   -0.9126 H       1  UNL1        0.0281
     29 H           2.9531    0.2962    0.9346 H       1  UNL1        0.0812
     30 H           2.9897   -1.0772   -0.1986 H       1  UNL1        0.0812
     31 H           2.6706    0.3573   -2.0009 H       1  UNL1        0.2033
     32 H           2.5735    2.6494   -2.1138 H       1  UNL1        0.0812
     33 H           1.2617    2.0455   -1.1267 H       1  UNL1        0.0812
     34 H           2.7157    2.5650    0.9687 H       1  UNL1        0.0281
     35 H           3.8440    3.3830   -0.1292 H       1  UNL1        0.0281
     36 H           2.1922    3.9721    0.0400 H       1  UNL1        0.0281
     37 H           4.8857    1.2030   -0.2515 H       1  UNL1        0.0814
     38 H           4.8117   -0.2424   -1.2899 H       1  UNL1        0.0814
     39 H           4.6408    1.1907   -3.3258 H       1  UNL1        0.0317
     40 H           4.7507    2.6443   -2.3295 H       1  UNL1        0.0317
     41 H           6.9777    1.9144   -1.4698 H       1  UNL1        0.0267
     42 H           6.9093    0.4876   -2.5093 H       1  UNL1        0.0267
     43 H           6.7383    1.9663   -4.5213 H       1  UNL1        0.0266
     44 H           6.7774    3.3869   -3.4783 H       1  UNL1        0.0266
     45 H           9.0642    2.6975   -2.6574 H       1  UNL1        0.0280
     46 H           9.0358    1.3232   -3.7634 H       1  UNL1        0.0280
     47 H           8.7316    2.9044   -5.6953 H       1  UNL1        0.0461
     48 H           8.7278    4.2468   -4.5166 H       1  UNL1        0.0461
     49 H          10.9659    3.7771   -3.9721 H       1  UNL1        0.1461
     50 H          12.7899    2.5965   -5.9408 H       1  UNL1        0.0673
     51 H          14.2980    4.0087   -9.8579 H       1  UNL1        0.0660
     52 H          15.2280    5.0495   -8.7111 H       1  UNL1        0.0660
     53 H          15.7916    3.4234   -9.1173 H       1  UNL1        0.0660
     54 H          12.9546    5.6506   -8.9255 H       1  UNL1        0.0661
     55 H          12.2629    7.9497   -9.2206 H       1  UNL1        0.0278
     56 H          11.2966    6.8456  -10.2500 H       1  UNL1        0.0278
     57 H          10.6452    8.4083   -9.7624 H       1  UNL1        0.0278
     58 H           9.0703    8.3684   -8.0490 H       1  UNL1        0.0635
     59 H           8.1118    7.2862   -6.0378 H       1  UNL1        0.0830
@<TRIPOS>UNITY_ATOM_ATTR
3 1
charge 1
@<TRIPOS>BOND
     1     1    26    1
     2     1    27    1
     3     1    28    1
     4     2     1    1
     5     2    29    1
     6     2    30    1
     7     3     2    1
     8     3    31    1
     9     4     3    1
    10     4    32    1
    11     4    33    1
    12     5     4    1
    13     5    34    1
    14     5    35    1
    15     5    36    1
    16     6     3    1
    17     6    37    1
    18     6    38    1
    19     7     6    1
    20     7    39    1
    21     7    40    1
    22     8     7    1
    23     8    41    1
    24     8    42    1
    25     9     8    1
    26     9    43    1
    27     9    44    1
    28    10     9    1
    29    10    45    1
    30    10    46    1
    31    11    10    1
    32    11    47    1
    33    11    48    1
    34    12    11    1
    35    12    49    1
    36    13    12    1
    37    14    13   ar
    38    14    50    1
    39    15    14   ar
    40    16    15    1
    41    17    16    1
    42    17    51    1
    43    17    52    1
    44    17    53    1
    45    18    15   ar
    46    18    54    1
    47    19    18   ar
    48    20    19   ar
    49    21    20    1
    50    21    55    1
    51    21    56    1
    52    21    57    1
    53    22    20   ar
    54    22    58    1
    55    23    22   ar
    56    23    59    1
    57    24    23   ar
    58    25    24   ar
    59    25    13   ar
    60    25    19   ar
@<TRIPOS>MOLECULE
mol_613_akc_jfitote200707005
>595.sdf
 53 54 0 0 0
SMALL
GASTEIGER

@<TRIPOS>ATOM
      1 C           1.0107    4.4403    0.5693 C.3     1  UNL1       -0.0440
      2 C           2.5093    4.3537    0.4891 C.2     1  UNL1       -0.0796
      3 C           3.1301    4.8624   -0.7803 C.3     1  UNL1       -0.0440
      4 C           3.2316    3.8487    1.5063 C.2     1  UNL1       -0.0850
      5 C           4.7329    3.8154    1.5777 C.3     1  UNL1       -0.0308
      6 C           5.3420    2.5075    1.0484 C.3     1  UNL1       -0.0286
      7 C           6.8631    2.4922    1.0075 C.2     1  UNL1       -0.0759
      8 C           7.4863    1.6265   -0.0569 C.3     1  UNL1       -0.0438
      9 C           7.6175    3.2018    1.8696 C.2     1  UNL1       -0.0805
     10 C           9.1114    3.3293    1.8352 C.3     1  UNL1       -0.0023
     11 C           9.5671    4.6339    2.4483 C.ar    1  UNL1        0.0400
     12 C           9.7290    5.7854    1.6614 C.ar    1  UNL1        0.1273
     13 O           9.3864    5.8253    0.3382 O.3     1  UNL1       -0.5062
     14 C          10.2440    6.9639    2.1947 C.ar    1  UNL1        0.0225
     15 C          10.6104    7.0122    3.5351 C.ar    1  UNL1        0.1347
     16 O          11.1325    8.1970    3.9827 O.3     1  UNL1       -0.5058
     17 C          10.4433    5.8914    4.3606 C.ar    1  UNL1        0.1054
     18 C          10.9182    5.9672    5.7710 C.2     1  UNL1        0.2002
     19 O          10.8853    7.0583    6.3353 O.2     1  UNL1       -0.2864
     20 C          11.5078    4.7977    6.4793 C.ar    1  UNL1        0.0225
     21 C          11.3788    4.7239    7.8709 C.ar    1  UNL1       -0.0509
     22 C          11.9041    3.6314    8.5646 C.ar    1  UNL1       -0.0611
     23 C          12.5590    2.6120    7.8729 C.ar    1  UNL1       -0.0617
     24 C          12.7113    2.6914    6.4904 C.ar    1  UNL1       -0.0611
     25 C          12.2075    3.7926    5.7968 C.ar    1  UNL1       -0.0509
     26 C           9.8528    4.7331    3.8239 C.ar    1  UNL1        0.1381
     27 O           9.5391    3.7122    4.6846 O.3     1  UNL1       -0.5055
     28 H           0.6886    5.4790    0.4388 H       1  UNL1        0.0274
     29 H           0.5518    3.8297   -0.2141 H       1  UNL1        0.0274
     30 H           0.6267    4.0957    1.5352 H       1  UNL1        0.0274
     31 H           3.7651    5.7325   -0.5840 H       1  UNL1        0.0274
     32 H           3.7305    4.0810   -1.2574 H       1  UNL1        0.0274
     33 H           2.3660    5.1684   -1.5008 H       1  UNL1        0.0274
     34 H           2.7208    3.4821    2.3966 H       1  UNL1        0.0572
     35 H           5.1577    4.6676    1.0319 H       1  UNL1        0.0310
     36 H           5.0016    3.9684    2.6297 H       1  UNL1        0.0310
     37 H           4.9958    1.6556    1.6465 H       1  UNL1        0.0313
     38 H           4.9672    2.3488    0.0292 H       1  UNL1        0.0313
     39 H           7.9761    2.2454   -0.8161 H       1  UNL1        0.0274
     40 H           8.2261    0.9475    0.3811 H       1  UNL1        0.0274
     41 H           6.7412    1.0051   -0.5632 H       1  UNL1        0.0274
     42 H           7.1286    3.7706    2.6586 H       1  UNL1        0.0575
     43 H           9.5682    2.4867    2.3680 H       1  UNL1        0.0358
     44 H           9.4992    3.2565    0.8126 H       1  UNL1        0.0358
     45 H           8.7013    5.1585    0.1629 H       1  UNL1        0.2921
     46 H          10.3632    7.8427    1.5667 H       1  UNL1        0.0691
     47 H          11.1746    8.1534    4.9650 H       1  UNL1        0.2922
     48 H          10.8625    5.5117    8.4155 H       1  UNL1        0.0625
     49 H          11.7995    3.5749    9.6454 H       1  UNL1        0.0618
     50 H          12.9575    1.7572    8.4136 H       1  UNL1        0.0618
     51 H          13.2212    1.8984    5.9503 H       1  UNL1        0.0618
     52 H          12.3496    3.8410    4.7211 H       1  UNL1        0.0625
     53 H           9.0573    2.9957    4.2442 H       1  UNL1        0.2922
@<TRIPOS>BOND
     1     1    28    1
     2     1    29    1
     3     1    30    1
     4     2     1    1
     5     3     2    1
     6     3    31    1
     7     3    32    1
     8     3    33    1
     9     4     2    2
    10     4    34    1
    11     5     4    1
    12     5    35    1
    13     5    36    1
    14     6     5    1
    15     6    37    1
    16     6    38    1
    17     7     6    1
    18     8     7    1
    19     8    39    1
    20     8    40    1
    21     8    41    1
    22     9     7    2
    23     9    42    1
    24    10     9    1
    25    10    43    1
    26    10    44    1
    27    11    10    1
    28    12    11   ar
    29    13    12    1
    30    13    45    1
    31    14    12   ar
    32    14    46    1
    33    15    14   ar
    34    16    15    1
    35    16    47    1
    36    17    15   ar
    37    18    17    1
    38    19    18    2
    39    20    18    1
    40    21    20   ar
    41    21    48    1
    42    22    21   ar
    43    22    49    1
    44    23    22   ar
    45    23    50    1
    46    24    23   ar
    47    24    51    1
    48    25    24   ar
    49    25    20   ar
    50    25    52    1
    51    26    17   ar
    52    26    11   ar
    53    27    26    1
    54    27    53    1
@<TRIPOS>MOLECULE
mol_614_akc_jbmc200709007
>596.sdf
 42 45 0 0 0
SMALL
GASTEIGER

@<TRIPOS>ATOM
      1 O           2.6976    1.5992   -0.1703 O.2     1  UNL1       -0.1500
      2 S           2.5982    0.1584   -0.1129 S.O2    1  UNL1        0.0724
      3 O           1.3502   -0.5226   -0.3745 O.2     1  UNL1       -0.1500
      4 N           3.7539   -0.5474   -1.1440 N.pl3   1  UNL1       -0.2142
      5 C           4.9525    0.2199   -1.3627 C.ar    1  UNL1        0.0739
      6 C           6.0253    0.0639   -0.4816 C.ar    1  UNL1       -0.0372
      7 C           7.1713    0.8331   -0.6520 C.ar    1  UNL1       -0.0593
      8 C           7.2309    1.7652   -1.6871 C.ar    1  UNL1       -0.0524
      9 C           6.1486    1.9226   -2.5716 C.ar    1  UNL1        0.0022
     10 C           4.9853    1.1389   -2.4222 C.ar    1  UNL1        0.0932
     11 N           3.9369    1.2426   -3.2726 N.ar    1  UNL1       -0.2531
     12 C           4.0117    2.1559   -4.2656 C.ar    1  UNL1        0.0283
     13 C           5.1055    2.9719   -4.4810 C.ar    1  UNL1       -0.0430
     14 C           6.1906    2.8489   -3.6222 C.ar    1  UNL1       -0.0511
     15 C           3.1244   -0.3624    1.5029 C.ar    1  UNL1        0.1085
     16 C           3.4606    0.5795    2.4760 C.ar    1  UNL1       -0.0345
     17 C           3.7943    0.1527    3.7696 C.ar    1  UNL1       -0.0522
     18 C           3.7848   -1.2112    4.1210 C.ar    1  UNL1       -0.0178
     19 C           3.4399   -2.1305    3.1075 C.ar    1  UNL1       -0.0522
     20 C           3.1181   -1.7196    1.8111 C.ar    1  UNL1       -0.0345
     21 C           4.0805   -1.6803    5.5006 C.ar    1  UNL1       -0.0179
     22 C           3.7672   -0.9081    6.6350 C.ar    1  UNL1       -0.0540
     23 C           3.9866   -1.3896    7.9320 C.ar    1  UNL1       -0.0612
     24 C           4.5190   -2.6599    8.1270 C.ar    1  UNL1       -0.0617
     25 C           4.8547   -3.4390    7.0268 C.ar    1  UNL1       -0.0612
     26 C           4.6494   -2.9482    5.7337 C.ar    1  UNL1       -0.0540
     27 H           3.2664   -0.7308   -2.0288 H       1  UNL1        0.1738
     28 H           5.9793   -0.6676    0.3201 H       1  UNL1        0.0637
     29 H           8.0174    0.7091    0.0196 H       1  UNL1        0.0618
     30 H           8.1295    2.3676   -1.8050 H       1  UNL1        0.0624
     31 H           3.1360    2.2154   -4.9062 H       1  UNL1        0.0830
     32 H           5.1141    3.6857   -5.2970 H       1  UNL1        0.0633
     33 H           7.0641    3.4780   -3.7741 H       1  UNL1        0.0625
     34 H           3.4441    1.6439    2.2492 H       1  UNL1        0.0637
     35 H           4.0521    0.9125    4.5054 H       1  UNL1        0.0624
     36 H           3.3832   -3.1954    3.3253 H       1  UNL1        0.0624
     37 H           2.8370   -2.4576    1.0639 H       1  UNL1        0.0637
     38 H           3.3175    0.0766    6.5304 H       1  UNL1        0.0624
     39 H           3.7246   -0.7751    8.7897 H       1  UNL1        0.0618
     40 H           4.6696   -3.0428    9.1326 H       1  UNL1        0.0618
     41 H           5.2704   -4.4332    7.1676 H       1  UNL1        0.0618
     42 H           4.9399   -3.5852    4.9015 H       1  UNL1        0.0624
@<TRIPOS>BOND
     1     2     1    2
     2     3     2    2
     3     4     2    1
     4     4    27    1
     5     5     4    1
     6     6     5   ar
     7     6    28    1
     8     7     6   ar
     9     7    29    1
    10     8     7   ar
    11     8    30    1
    12     9     8   ar
    13    10     9   ar
    14    10     5   ar
    15    11    10   ar
    16    12    11   ar
    17    12    31    1
    18    13    12   ar
    19    13    32    1
    20    14    13   ar
    21    14     9   ar
    22    14    33    1
    23    15     2    1
    24    16    15   ar
    25    16    34    1
    26    17    16   ar
    27    17    35    1
    28    18    17   ar
    29    19    18   ar
    30    19    36    1
    31    20    19   ar
    32    20    15   ar
    33    20    37    1
    34    21    18    1
    35    22    21   ar
    36    22    38    1
    37    23    22   ar
    38    23    39    1
    39    24    23   ar
    40    24    40    1
    41    25    24   ar
    42    25    41    1
    43    26    25   ar
    44    26    21   ar
    45    26    42    1
@<TRIPOS>MOLECULE
mol_615_akc_jbmc200708016
>597.sdf
 31 32 0 0 0
SMALL
GASTEIGER

@<TRIPOS>ATOM
      1 C           3.0704   -0.6549   -1.2202 C.3     1  UNL1       -0.0458
      2 C           2.4453   -0.0236    0.0300 C.3     1  UNL1        0.0698
      3 S           2.8060    1.7818    0.1687 S.3     1  UNL1       -0.1141
      4 C           2.0352    2.4378   -1.2989 C.ar    1  UNL1        0.0086
      5 C           0.6903    2.2089   -1.6013 C.ar    1  UNL1       -0.0469
      6 C           0.1143    2.7829   -2.7405 C.ar    1  UNL1       -0.0423
      7 C           0.8830    3.5921   -3.5749 C.ar    1  UNL1        0.0410
      8 CL          0.1718    4.2988   -4.9715 Cl      1  UNL1       -0.0835
      9 C           2.2207    3.8387   -3.2778 C.ar    1  UNL1       -0.0423
     10 C           2.7917    3.2681   -2.1363 C.ar    1  UNL1       -0.0469
     11 C           2.9928   -0.6784    1.3053 C.2     1  UNL1        0.1760
     12 O           4.1661   -1.0503    1.3885 O.2     1  UNL1       -0.2909
     13 C           2.1052   -0.8663    2.5004 C.ar    1  UNL1        0.0185
     14 C           0.7816   -0.4132    2.5605 C.ar    1  UNL1       -0.0512
     15 C           0.0077   -0.6423    3.7039 C.ar    1  UNL1       -0.0611
     16 C           0.5493   -1.3126    4.7983 C.ar    1  UNL1       -0.0617
     17 C           1.8679   -1.7569    4.7556 C.ar    1  UNL1       -0.0611
     18 C           2.6405   -1.5359    3.6131 C.ar    1  UNL1       -0.0512
     19 H           2.2764   -1.0858   -1.8426 H       1  UNL1        0.0245
     20 H           3.6131    0.0576   -1.8487 H       1  UNL1        0.0245
     21 H           3.7522   -1.4798   -0.9884 H       1  UNL1        0.0245
     22 H           1.3663   -0.1780   -0.0316 H       1  UNL1        0.0494
     23 H           0.0656    1.6075   -0.9476 H       1  UNL1        0.0629
     24 H          -0.9334    2.6033   -2.9641 H       1  UNL1        0.0632
     25 H           2.8206    4.4766   -3.9192 H       1  UNL1        0.0632
     26 H           3.8362    3.4760   -1.9091 H       1  UNL1        0.0629
     27 H           0.3179    0.1315    1.7453 H       1  UNL1        0.0625
     28 H          -1.0211   -0.2918    3.7427 H       1  UNL1        0.0618
     29 H          -0.0531   -1.4857    5.6872 H       1  UNL1        0.0618
     30 H           2.2997   -2.2728    5.6102 H       1  UNL1        0.0618
     31 H           3.6712   -1.8886    3.5993 H       1  UNL1        0.0625
@<TRIPOS>BOND
     1     1    19    1
     2     1    20    1
     3     1    21    1
     4     3     2    1
     5     4     3    1
     6     5     4   ar
     7     5    23    1
     8     6     5   ar
     9     6    24    1
    10     7     6   ar
    11     8     7    1
    12     9     7   ar
    13     9    25    1
    14    10     9   ar
    15    10     4   ar
    16    10    26    1
    17    11     2    1
    18    12    11    2
    19    13    11    1
    20    14    13   ar
    21    14    27    1
    22    15    14   ar
    23    15    28    1
    24    16    15   ar
    25    16    29    1
    26    17    16   ar
    27    17    30    1
    28    18    17   ar
    29    18    13   ar
    30    18    31    1
    31     2    22    1
    32     2     1    1
@<TRIPOS>MOLECULE
mol_616_akc_jejmech200702010
>598.sdf
 37 39 0 0 0
SMALL
GASTEIGER

@<TRIPOS>ATOM
      1 C           1.0476   -0.6169    0.9790 C.3     1  UNL1        0.0125
      2 C           2.4993   -0.8532    1.2913 C.2     1  UNL1        0.2141
      3 O           2.9021   -0.8318    2.4516 O.2     1  UNL1       -0.2758
      4 N           3.2818   -1.1040    0.1775 N.am    1  UNL1       -0.2857
      5 C           4.6898   -1.1189    0.2262 C.ar    1  UNL1        0.0354
      6 C           5.3959   -2.0390   -0.5542 C.ar    1  UNL1       -0.0145
      7 C           6.7820   -2.1337   -0.4841 C.ar    1  UNL1        0.0734
      8 N           7.4231   -3.1021   -1.1603 N.ar    1  UNL1       -0.2466
      9 C           8.7566   -3.2333   -1.0426 C.ar    1  UNL1        0.0734
     10 C           9.4141   -4.2817   -1.6808 C.ar    1  UNL1       -0.0145
     11 C          10.7983   -4.4642   -1.5784 C.ar    1  UNL1        0.0354
     12 N          11.5118   -5.5149   -2.1946 N.am    1  UNL1       -0.2857
     13 C          11.0044   -6.5183   -2.9987 C.2     1  UNL1        0.2141
     14 C          12.0630   -7.4775   -3.4848 C.3     1  UNL1        0.0125
     15 O           9.8312   -6.6841   -3.3140 O.2     1  UNL1       -0.2758
     16 C          11.5449   -3.5598   -0.8202 C.ar    1  UNL1       -0.0398
     17 C          10.9157   -2.4990   -0.1718 C.ar    1  UNL1       -0.0508
     18 C           9.5263   -2.3404   -0.2736 C.ar    1  UNL1        0.0011
     19 C           8.8645   -1.3116    0.3984 C.ar    1  UNL1       -0.0434
     20 C           7.4740   -1.2125    0.3252 C.ar    1  UNL1        0.0011
     21 C           6.7781   -0.2418    1.0562 C.ar    1  UNL1       -0.0508
     22 C           5.3884   -0.2138    1.0245 C.ar    1  UNL1       -0.0398
     23 H           0.4556   -1.4758    1.3036 H       1  UNL1        0.0323
     24 H           0.7258    0.2771    1.5229 H       1  UNL1        0.0323
     25 H           0.8860   -0.4421   -0.0874 H       1  UNL1        0.0323
     26 H           2.8351   -1.5607   -0.6084 H       1  UNL1        0.1548
     27 H           4.8672   -2.7558   -1.1766 H       1  UNL1        0.0657
     28 H           8.7973   -4.9660   -2.2557 H       1  UNL1        0.0657
     29 H          12.5099   -5.5262   -2.0267 H       1  UNL1        0.1548
     30 H          11.9468   -8.4305   -2.9622 H       1  UNL1        0.0323
     31 H          11.9371   -7.6293   -4.5606 H       1  UNL1        0.0323
     32 H          13.0743   -7.0996   -3.3121 H       1  UNL1        0.0323
     33 H          12.6215   -3.6664   -0.7179 H       1  UNL1        0.0636
     34 H          11.5112   -1.8084    0.4196 H       1  UNL1        0.0625
     35 H           9.4268   -0.6074    1.0075 H       1  UNL1        0.0631
     36 H           7.3058    0.4776    1.6770 H       1  UNL1        0.0625
     37 H           4.8621    0.5331    1.6140 H       1  UNL1        0.0636
@<TRIPOS>BOND
     1     1    23    1
     2     1    24    1
     3     1    25    1
     4     2     1    1
     5     3     2    2
     6     4     2   am
     7     4    26    1
     8     5     4    1
     9     6     5   ar
    10     6    27    1
    11     7     6   ar
    12     8     7   ar
    13     9     8   ar
    14    10     9   ar
    15    10    28    1
    16    11    10   ar
    17    12    11    1
    18    12    29    1
    19    13    12   am
    20    14    13    1
    21    14    30    1
    22    14    31    1
    23    14    32    1
    24    15    13    2
    25    16    11   ar
    26    16    33    1
    27    17    16   ar
    28    17    34    1
    29    18    17   ar
    30    18     9   ar
    31    19    18   ar
    32    19    35    1
    33    20    19   ar
    34    20     7   ar
    35    21    20   ar
    36    21    36    1
    37    22    21   ar
    38    22     5   ar
    39    22    37    1
@<TRIPOS>MOLECULE
mol_617_akc_jejmech200702010
>599.sdf
 51 55 0 0 0
SMALL
GASTEIGER

@<TRIPOS>ATOM
      1 O           2.7570    1.0116    2.3720 O.2     1  UNL1       -0.2699
      2 C           3.2375    0.5187    1.3583 C.2     1  UNL1        0.2483
      3 N           2.9952   -0.7793    0.9351 N.am    1  UNL1       -0.2814
      4 C           2.3421   -1.7144    1.7611 C.ar    1  UNL1        0.0357
      5 C           2.7600   -1.9169    3.0808 C.ar    1  UNL1       -0.0145
      6 C           2.1892   -2.8965    3.8850 C.ar    1  UNL1        0.0734
      7 N           2.6836   -3.1238    5.1128 N.ar    1  UNL1       -0.2466
      8 C           2.1467   -4.0892    5.8859 C.ar    1  UNL1        0.0734
      9 C           2.6788   -4.3364    7.1459 C.ar    1  UNL1       -0.0145
     10 C           2.1739   -5.3290    7.9985 C.ar    1  UNL1        0.0357
     11 N           2.6935   -5.5866    9.2933 N.am    1  UNL1       -0.2814
     12 C           3.5149   -4.7187   10.0042 C.2     1  UNL1        0.2483
     13 O           3.8030   -3.5799    9.6573 O.2     1  UNL1       -0.2699
     14 C           4.0263   -5.1739   11.3247 C.ar    1  UNL1        0.0370
     15 C           4.2796   -6.5132   11.6263 C.ar    1  UNL1       -0.0496
     16 C           4.8753   -6.8484   12.8486 C.ar    1  UNL1       -0.0610
     17 C           5.2201   -5.8502   13.7655 C.ar    1  UNL1       -0.0617
     18 C           4.9578   -4.5173   13.4751 C.ar    1  UNL1       -0.0610
     19 C           4.3628   -4.1782   12.2572 C.ar    1  UNL1       -0.0496
     20 C           1.1140   -6.1179    7.5490 C.ar    1  UNL1       -0.0398
     21 C           0.5508   -5.8800    6.2930 C.ar    1  UNL1       -0.0508
     22 C           1.0613   -4.8710    5.4566 C.ar    1  UNL1        0.0011
     23 C           0.5399   -4.6176    4.1833 C.ar    1  UNL1       -0.0434
     24 C           1.1171   -3.6395    3.3608 C.ar    1  UNL1        0.0011
     25 C           0.6698   -3.4145    2.0469 C.ar    1  UNL1       -0.0508
     26 C           1.3119   -2.4822    1.2311 C.ar    1  UNL1       -0.0398
     27 C           4.1333    1.3573    0.5126 C.ar    1  UNL1        0.0370
     28 C           4.8339    2.3785    1.1726 C.ar    1  UNL1       -0.0496
     29 C           5.7256    3.1919    0.4772 C.ar    1  UNL1       -0.0610
     30 C           5.9169    2.9971   -0.8877 C.ar    1  UNL1       -0.0617
     31 C           5.2116    1.9952   -1.5577 C.ar    1  UNL1       -0.0610
     32 C           4.3178    1.1730   -0.8623 C.ar    1  UNL1       -0.0496
     33 H           3.1447   -1.0324   -0.0294 H       1  UNL1        0.1551
     34 H           3.5846   -1.3387    3.4861 H       1  UNL1        0.0657
     35 H           3.5316   -3.7270    7.4382 H       1  UNL1        0.0657
     36 H           2.3335   -6.3835    9.7825 H       1  UNL1        0.1551
     37 H           4.0717   -7.3057   10.9144 H       1  UNL1        0.0625
     38 H           5.1015   -7.8869   13.0815 H       1  UNL1        0.0618
     39 H           5.7055   -6.1121   14.7032 H       1  UNL1        0.0618
     40 H           5.2327   -3.7319   14.1766 H       1  UNL1        0.0618
     41 H           4.1845   -3.1290   12.0270 H       1  UNL1        0.0625
     42 H           0.6970   -6.9036    8.1706 H       1  UNL1        0.0636
     43 H          -0.2890   -6.4874    5.9642 H       1  UNL1        0.0625
     44 H          -0.3027   -5.2010    3.8183 H       1  UNL1        0.0631
     45 H          -0.1770   -3.9714    1.6482 H       1  UNL1        0.0625
     46 H           0.9571   -2.3187    0.2174 H       1  UNL1        0.0636
     47 H           4.6892    2.5348    2.2406 H       1  UNL1        0.0625
     48 H           6.2667    3.9719    1.0036 H       1  UNL1        0.0618
     49 H           6.6132    3.6323   -1.4313 H       1  UNL1        0.0618
     50 H           5.3586    1.8596   -2.6269 H       1  UNL1        0.0618
     51 H           3.7679    0.4224   -1.4186 H       1  UNL1        0.0625
@<TRIPOS>BOND
     1     2     1    2
     2     3     2   am
     3     3    33    1
     4     4     3    1
     5     5     4   ar
     6     5    34    1
     7     6     5   ar
     8     7     6   ar
     9     8     7   ar
    10     9     8   ar
    11     9    35    1
    12    10     9   ar
    13    11    10    1
    14    11    36    1
    15    12    11   am
    16    13    12    2
    17    14    12    1
    18    15    14   ar
    19    15    37    1
    20    16    15   ar
    21    16    38    1
    22    17    16   ar
    23    17    39    1
    24    18    17   ar
    25    18    40    1
    26    19    18   ar
    27    19    14   ar
    28    19    41    1
    29    20    10   ar
    30    20    42    1
    31    21    20   ar
    32    21    43    1
    33    22    21   ar
    34    22     8   ar
    35    23    22   ar
    36    23    44    1
    37    24    23   ar
    38    24     6   ar
    39    25    24   ar
    40    25    45    1
    41    26    25   ar
    42    26     4   ar
    43    26    46    1
    44    27     2    1
    45    28    27   ar
    46    28    47    1
    47    29    28   ar
    48    29    48    1
    49    30    29   ar
    50    30    49    1
    51    31    30   ar
    52    31    50    1
    53    32    31   ar
    54    32    27   ar
    55    32    51    1
@<TRIPOS>MOLECULE
mol_618_akc_jbmc200706042
>600.sdf
 57 58 0 0 0
SMALL
GASTEIGER

@<TRIPOS>ATOM
      1 C           1.0724    1.3937   -0.4342 C.3     1  UNL1       -0.0652
      2 C           2.5364    1.1885   -0.8100 C.3     1  UNL1       -0.0545
      3 C           2.7250    1.4788   -2.2911 C.3     1  UNL1       -0.0375
      4 C           4.1335    1.3257   -2.8469 C.3     1  UNL1        0.0123
      5 N           4.8523    0.0302   -2.8710 N.pl3   1  UNL1       -0.3264
      6 C           4.1730   -1.2818   -2.7535 C.3     1  UNL1        0.0123
      7 C           2.8327   -1.5137   -3.4503 C.3     1  UNL1       -0.0375
      8 C           2.8107   -1.2798   -4.9588 C.3     1  UNL1       -0.0545
      9 C           3.7035   -2.2500   -5.7185 C.3     1  UNL1       -0.0652
     10 C           6.2608    0.0410   -3.1010 C.ar    1  UNL1        0.0909
     11 C           7.1798   -0.8932   -2.5232 C.ar    1  UNL1        0.1512
     12 C           8.5684   -0.9592   -2.8232 C.ar    1  UNL1       -0.0029
     13 C           9.1175   -0.0690   -3.7336 C.ar    1  UNL1        0.1129
     14 C           8.3117    0.9117   -4.2837 C.ar    1  UNL1       -0.0029
     15 C           6.9353    0.9656   -3.9581 C.ar    1  UNL1        0.1512
     16 N           6.2873    2.0944   -4.5917 N.pl3   1  UNL1        0.0584
     17 O           6.2603    3.1540   -3.9554 O.2     1  UNL1       -0.1261
     18 O           5.8869    1.9332   -5.7552 O.2     1  UNL1       -0.1261
     19 S          10.8618   -0.0622   -4.0885 S.O2    1  UNL1        0.0725
     20 O          11.1980    1.2394   -4.6210 O.2     1  UNL1       -0.1500
     21 O          11.5270   -0.5912   -2.9178 O.2     1  UNL1       -0.1500
     22 N          11.0181   -1.2125   -5.2828 N.pl3   1  UNL1       -0.2163
     23 C          10.3958   -1.0744   -6.5435 C.ar    1  UNL1        0.0480
     24 C          10.9710   -0.2991   -7.5484 C.ar    1  UNL1       -0.0393
     25 C          10.3727   -0.2485   -8.8103 C.ar    1  UNL1       -0.0600
     26 C           9.2028   -0.9678   -9.0599 C.ar    1  UNL1       -0.0616
     27 C           8.6306   -1.7403   -8.0499 C.ar    1  UNL1       -0.0600
     28 C           9.2335   -1.8030   -6.7942 C.ar    1  UNL1       -0.0393
     29 N           6.8030   -1.7924   -1.4433 N.pl3   1  UNL1        0.0584
     30 O           6.4591   -2.9381   -1.7529 O.2     1  UNL1       -0.1261
     31 O           6.9838   -1.3785   -0.2865 O.2     1  UNL1       -0.1261
     32 H           0.9180    1.2267    0.6351 H       1  UNL1        0.0230
     33 H           0.7455    2.4127   -0.6705 H       1  UNL1        0.0230
     34 H           0.4297    0.6990   -0.9860 H       1  UNL1        0.0230
     35 H           3.1587    1.8681   -0.2165 H       1  UNL1        0.0263
     36 H           2.8342    0.1661   -0.5644 H       1  UNL1        0.0263
     37 H           1.9951    0.9470   -2.9012 H       1  UNL1        0.0280
     38 H           2.4540    2.5346   -2.4447 H       1  UNL1        0.0280
     39 H           4.0330    1.6603   -3.8826 H       1  UNL1        0.0464
     40 H           4.7505    2.0456   -2.2960 H       1  UNL1        0.0464
     41 H           4.8183   -2.0524   -3.1829 H       1  UNL1        0.0464
     42 H           4.0503   -1.5152   -1.6899 H       1  UNL1        0.0464
     43 H           2.5565   -2.5630   -3.2715 H       1  UNL1        0.0280
     44 H           2.0278   -0.9611   -2.9685 H       1  UNL1        0.0280
     45 H           1.7802   -1.4180   -5.3097 H       1  UNL1        0.0263
     46 H           3.0899   -0.2494   -5.1985 H       1  UNL1        0.0263
     47 H           4.7604   -2.0822   -5.4924 H       1  UNL1        0.0230
     48 H           3.4573   -3.2873   -5.4670 H       1  UNL1        0.0230
     49 H           3.5676   -2.1241   -6.7968 H       1  UNL1        0.0230
     50 H           9.2069   -1.6833   -2.3159 H       1  UNL1        0.0660
     51 H           8.7404    1.6519   -4.9619 H       1  UNL1        0.0660
     52 H          11.6072   -2.0195   -5.0872 H       1  UNL1        0.1737
     53 H          11.8867    0.2578   -7.3660 H       1  UNL1        0.0636
     54 H          10.8227    0.3437   -9.6037 H       1  UNL1        0.0618
     55 H           8.7403   -0.9318  -10.0436 H       1  UNL1        0.0618
     56 H           7.7215   -2.3035   -8.2455 H       1  UNL1        0.0618
     57 H           8.7931   -2.4253   -6.0209 H       1  UNL1        0.0636
@<TRIPOS>BOND
     1     1    32    1
     2     1    33    1
     3     1    34    1
     4     2     1    1
     5     2    35    1
     6     2    36    1
     7     3     2    1
     8     3    37    1
     9     3    38    1
    10     4     3    1
    11     4    39    1
    12     4    40    1
    13     5     4    1
    14     6     5    1
    15     6    41    1
    16     6    42    1
    17     7     6    1
    18     7    43    1
    19     7    44    1
    20     8     7    1
    21     8    45    1
    22     8    46    1
    23     9     8    1
    24     9    47    1
    25     9    48    1
    26     9    49    1
    27    10     5    1
    28    11    10   ar
    29    12    11   ar
    30    12    50    1
    31    13    12   ar
    32    14    13   ar
    33    14    51    1
    34    15    14   ar
    35    15    10   ar
    36    16    15    1
    37    17    16    2
    38    18    16    2
    39    19    13    1
    40    20    19    2
    41    21    19    2
    42    22    19    1
    43    22    52    1
    44    23    22    1
    45    24    23   ar
    46    24    53    1
    47    25    24   ar
    48    25    54    1
    49    26    25   ar
    50    26    55    1
    51    27    26   ar
    52    27    56    1
    53    28    27   ar
    54    28    23   ar
    55    28    57    1
    56    29    11    1
    57    30    29    2
    58    31    29    2
@<TRIPOS>MOLECULE
mol_619_akc_s00726_007_0537_9
>601.sdf
 17 16 0 0 0
SMALL
GASTEIGER

@<TRIPOS>ATOM
      1 N           0.8947   -0.0334   -0.0759 N.4     1  UNL1        0.2186
      2 C           2.3796   -0.0067   -0.0534 C.3     1  UNL1       -0.0332
      3 C           2.9096   -1.1111   -0.9506 C.3     1  UNL1        0.0127
      4 C           4.4342   -1.1989   -0.8878 C.3     1  UNL1        0.0736
      5 O           4.9194   -1.2851    0.4571 O.3     1  UNL1       -0.3023
      6 N           4.4401   -2.5192    1.0625 N.3     1  UNL1       -0.2147
      7 H           0.5026    0.7202    0.5043 H       1  UNL1        0.1994
      8 H           0.5179    0.0772   -1.0264 H       1  UNL1        0.1994
      9 H           0.5392   -0.9232    0.3014 H       1  UNL1        0.1994
     10 H           2.6833    0.9831   -0.4073 H       1  UNL1        0.0814
     11 H           2.6704   -0.1250    0.9937 H       1  UNL1        0.0814
     12 H           2.4709   -2.0684   -0.6428 H       1  UNL1        0.0340
     13 H           2.5994   -0.9438   -1.9891 H       1  UNL1        0.0340
     14 H           4.8020   -2.0534   -1.4682 H       1  UNL1        0.0582
     15 H           4.8725   -0.2957   -1.3263 H       1  UNL1        0.0582
     16 H           5.2540   -3.1339    0.9427 H       1  UNL1        0.1500
     17 H           4.4698   -2.2840    2.0595 H       1  UNL1        0.1500
@<TRIPOS>UNITY_ATOM_ATTR
1 1
charge 1
@<TRIPOS>BOND
     1     1     7    1
     2     1     8    1
     3     1     9    1
     4     2     1    1
     5     2    10    1
     6     2    11    1
     7     3     2    1
     8     3    12    1
     9     3    13    1
    10     4     3    1
    11     4    14    1
    12     4    15    1
    13     5     4    1
    14     6     5    1
    15     6    16    1
    16     6    17    1
@<TRIPOS>MOLECULE
mol_61_akc_c4md00298a
>61.sdf
 54 59 0 0 0
SMALL
GASTEIGER

@<TRIPOS>ATOM
      1 C           2.9259    3.4541   -4.0342 C.3     1  UNL1        0.0820
      2 O           3.7952    2.3427   -4.2510 O.3     1  UNL1       -0.4634
      3 C           3.4921    1.5973   -5.3473 C.2     1  UNL1        0.3575
      4 O           2.5633    1.8020   -6.1140 O.2     1  UNL1       -0.2432
      5 C           4.4712    0.4716   -5.4987 C.ar    1  UNL1        0.1487
      6 N           5.4316    0.3345   -4.5446 N.ar    1  UNL1       -0.2394
      7 C           6.3542   -0.6815   -4.6155 C.ar    1  UNL1        0.1046
      8 C           7.3950   -0.7355   -3.4827 C.3     1  UNL1        0.1400
      9 N           8.1778    0.5051   -3.4472 N.pl3   1  UNL1       -0.3200
     10 C           9.2270    0.5758   -4.3688 C.ar    1  UNL1        0.0410
     11 C           9.7506    1.8144   -4.7549 C.ar    1  UNL1       -0.0401
     12 C          10.8391    1.8908   -5.6312 C.ar    1  UNL1       -0.0600
     13 C          11.4357    0.7276   -6.1119 C.ar    1  UNL1       -0.0609
     14 C          10.9569   -0.5108   -5.6959 C.ar    1  UNL1       -0.0478
     15 C           9.8712   -0.5776   -4.8114 C.ar    1  UNL1        0.0581
     16 C           9.3942   -1.8853   -4.3229 C.2     1  UNL1        0.2544
     17 O           9.9461   -2.8942   -4.7615 O.2     1  UNL1       -0.2695
     18 N           8.2731   -1.9027   -3.4780 N.am    1  UNL1       -0.2427
     19 C           7.8350   -3.1259   -2.8433 C.ar    1  UNL1        0.0389
     20 C           8.7442   -4.1679   -2.5916 C.ar    1  UNL1       -0.0388
     21 C           8.3353   -5.3858   -2.0358 C.ar    1  UNL1       -0.0416
     22 C           7.0027   -5.5784   -1.7022 C.ar    1  UNL1        0.0411
     23 CL          6.4913   -7.0771   -1.0347 Cl      1  UNL1       -0.0835
     24 C           6.0832   -4.5567   -1.9074 C.ar    1  UNL1       -0.0416
     25 C           6.4970   -3.3379   -2.4650 C.ar    1  UNL1       -0.0388
     26 C           6.2429   -1.5563   -5.7146 C.ar    1  UNL1        0.0726
     27 N           6.9763   -2.6719   -6.0571 N.ar    1  UNL1       -0.3526
     28 C           6.5658   -3.2022   -7.2503 C.ar    1  UNL1        0.0475
     29 C           5.4883   -2.4402   -7.6860 C.ar    1  UNL1        0.0075
     30 C           4.8772   -2.7927   -8.9061 C.ar    1  UNL1       -0.0520
     31 C           5.3767   -3.8825   -9.6351 C.ar    1  UNL1       -0.0611
     32 C           6.4625   -4.6211   -9.1649 C.ar    1  UNL1       -0.0598
     33 C           7.0773   -4.2940   -7.9569 C.ar    1  UNL1       -0.0378
     34 C           5.2729   -1.4111   -6.7095 C.ar    1  UNL1        0.0115
     35 C           4.3450   -0.3648   -6.5982 C.ar    1  UNL1       -0.0195
     36 H           2.8942    4.1016   -4.9159 H       1  UNL1        0.0661
     37 H           1.9223    3.1058   -3.7716 H       1  UNL1        0.0661
     38 H           3.3216    4.0351   -3.1959 H       1  UNL1        0.0661
     39 H           6.8351   -0.7302   -2.5397 H       1  UNL1        0.0781
     40 H           7.5512    1.3072   -3.5230 H       1  UNL1        0.1482
     41 H           9.3133    2.7358   -4.3783 H       1  UNL1        0.0636
     42 H          11.2268    2.8612   -5.9318 H       1  UNL1        0.0618
     43 H          12.2815    0.7838   -6.7926 H       1  UNL1        0.0618
     44 H          11.4364   -1.4212   -6.0498 H       1  UNL1        0.0626
     45 H           9.8042   -4.0574   -2.8097 H       1  UNL1        0.0637
     46 H           9.0681   -6.1717   -1.8726 H       1  UNL1        0.0633
     47 H           5.0373   -4.7019   -1.6478 H       1  UNL1        0.0633
     48 H           5.7201   -2.5956   -2.6223 H       1  UNL1        0.0637
     49 H           7.7397   -3.0651   -5.5228 H       1  UNL1        0.1660
     50 H           4.0342   -2.2258   -9.2891 H       1  UNL1        0.0624
     51 H           4.9149   -4.1532  -10.5809 H       1  UNL1        0.0618
     52 H           6.8383   -5.4591   -9.7447 H       1  UNL1        0.0618
     53 H           7.9249   -4.8631   -7.5860 H       1  UNL1        0.0638
     54 H           3.5677   -0.2143   -7.3391 H       1  UNL1        0.0648
@<TRIPOS>BOND
     1     1    36    1
     2     1    37    1
     3     1    38    1
     4     2     1    1
     5     3     2    1
     6     4     3    2
     7     5     3    1
     8     6     5   ar
     9     7     6   ar
    10     9     8    1
    11     9    40    1
    12    10     9    1
    13    11    10   ar
    14    11    41    1
    15    12    11   ar
    16    12    42    1
    17    13    12   ar
    18    13    43    1
    19    14    13   ar
    20    14    44    1
    21    15    14   ar
    22    15    10   ar
    23    16    15    1
    24    17    16    2
    25    18    16   am
    26    18     8    1
    27    19    18    1
    28    20    19   ar
    29    20    45    1
    30    21    20   ar
    31    21    46    1
    32    22    21   ar
    33    23    22    1
    34    24    22   ar
    35    24    47    1
    36    25    24   ar
    37    25    19   ar
    38    25    48    1
    39    26     7   ar
    40    27    26   ar
    41    27    49    1
    42    28    27   ar
    43    29    28   ar
    44    30    29   ar
    45    30    50    1
    46    31    30   ar
    47    31    51    1
    48    32    31   ar
    49    32    52    1
    50    33    32   ar
    51    33    28   ar
    52    33    53    1
    53    34    29   ar
    54    34    26   ar
    55    35    34   ar
    56    35     5   ar
    57    35    54    1
    58     8    39    1
    59     8     7    1
@<TRIPOS>MOLECULE
mol_620_akc_jbmcl200704035
>602.sdf
 42 45 0 0 0
SMALL
GASTEIGER

@<TRIPOS>ATOM
      1 O           1.0690    0.0017    0.1043 O.2     1  UNL1       -0.2666
      2 C           2.2838    0.0978    0.1890 C.2     1  UNL1        0.2845
      3 N           3.0295   -0.5814    1.1445 N.am    1  UNL1       -0.3083
      4 C           2.3568   -1.3571    2.1707 C.3     1  UNL1        0.0173
      5 C           3.3279   -2.0500    3.1252 C.3     1  UNL1        0.0031
      6 C           2.6120   -2.8246    4.1839 C.ar    1  UNL1        0.0185
      7 C           2.1714   -2.4308    5.4310 C.ar    1  UNL1       -0.0334
      8 C           1.5185   -3.5344    6.0407 C.ar    1  UNL1       -0.0001
      9 C           0.8652   -3.7240    7.2734 C.ar    1  UNL1       -0.0526
     10 C           0.3061   -4.9718    7.5686 C.ar    1  UNL1       -0.0611
     11 C           0.3975   -6.0228    6.6585 C.ar    1  UNL1       -0.0598
     12 C           1.0454   -5.8590    5.4284 C.ar    1  UNL1       -0.0378
     13 C           1.5933   -4.6015    5.1461 C.ar    1  UNL1        0.0467
     14 N           2.2675   -4.1483    4.0323 N.ar    1  UNL1       -0.3579
     15 C           3.1016    0.9925   -0.7735 C.2     1  UNL1        0.2492
     16 O           4.3232    0.9993   -0.6175 O.2     1  UNL1       -0.2817
     17 C           2.4314    1.7823   -1.8111 C.ar    1  UNL1        0.0519
     18 C           1.1321    2.2543   -1.7490 C.ar    1  UNL1        0.0137
     19 N           0.8662    2.9742   -2.8791 N.ar    1  UNL1       -0.3599
     20 C           1.9644    2.9826   -3.7028 C.ar    1  UNL1        0.0472
     21 C           2.1397    3.5944   -4.9501 C.ar    1  UNL1       -0.0378
     22 C           3.3671    3.4185   -5.5913 C.ar    1  UNL1       -0.0598
     23 C           4.3723    2.6510   -5.0091 C.ar    1  UNL1       -0.0611
     24 C           4.1831    2.0526   -3.7552 C.ar    1  UNL1       -0.0519
     25 C           2.9594    2.2290   -3.0732 C.ar    1  UNL1        0.0106
     26 H           4.0286   -0.4148    1.1601 H       1  UNL1        0.1491
     27 H           1.6935   -0.6770    2.7196 H       1  UNL1        0.0466
     28 H           1.7123   -2.0925    1.6731 H       1  UNL1        0.0466
     29 H           4.0019   -2.7083    2.5631 H       1  UNL1        0.0343
     30 H           3.9643   -1.2939    3.6044 H       1  UNL1        0.0343
     31 H           2.2919   -1.4439    5.8603 H       1  UNL1        0.0641
     32 H           0.7900   -2.9080    7.9857 H       1  UNL1        0.0624
     33 H          -0.2051   -5.1188    8.5169 H       1  UNL1        0.0618
     34 H          -0.0439   -6.9852    6.9074 H       1  UNL1        0.0618
     35 H           1.1115   -6.6815    4.7238 H       1  UNL1        0.0638
     36 H           2.4637   -4.7164    3.2196 H       1  UNL1        0.1656
     37 H           0.3686    2.1423   -0.9889 H       1  UNL1        0.0814
     38 H          -0.0120    3.4299   -3.0869 H       1  UNL1        0.1654
     39 H           1.3525    4.1840   -5.4091 H       1  UNL1        0.0638
     40 H           3.5354    3.8837   -6.5602 H       1  UNL1        0.0618
     41 H           5.3159    2.5153   -5.5323 H       1  UNL1        0.0618
     42 H           4.9762    1.4517   -3.3181 H       1  UNL1        0.0624
@<TRIPOS>BOND
     1     2     1    2
     2     3     2   am
     3     3    26    1
     4     4     3    1
     5     4    27    1
     6     4    28    1
     7     5     4    1
     8     5    29    1
     9     5    30    1
    10     6     5    1
    11     7     6   ar
    12     7    31    1
    13     8     7   ar
    14     9     8   ar
    15     9    32    1
    16    10     9   ar
    17    10    33    1
    18    11    10   ar
    19    11    34    1
    20    12    11   ar
    21    12    35    1
    22    13    12   ar
    23    13     8   ar
    24    14    13   ar
    25    14     6   ar
    26    14    36    1
    27    15     2    1
    28    16    15    2
    29    17    15    1
    30    18    17   ar
    31    18    37    1
    32    19    18   ar
    33    19    38    1
    34    20    19   ar
    35    21    20   ar
    36    21    39    1
    37    22    21   ar
    38    22    40    1
    39    23    22   ar
    40    23    41    1
    41    24    23   ar
    42    24    42    1
    43    25    24   ar
    44    25    17   ar
    45    25    20   ar
@<TRIPOS>MOLECULE
mol_621_akc_jjep200703025
>603.sdf
 35 38 0 0 0
SMALL
GASTEIGER

@<TRIPOS>ATOM
      1 C           4.6115    2.0783   -2.5071 C.3     1  UNL1        0.0820
      2 O           3.5801    1.1074   -2.3183 O.3     1  UNL1       -0.4646
      3 C           3.2876    0.8566   -1.0188 C.2     1  UNL1        0.3384
      4 O           3.8571    1.3557   -0.0574 O.2     1  UNL1       -0.2452
      5 C           2.1458   -0.0880   -0.8796 C.2     1  UNL1        0.0781
      6 C           1.6365   -0.7301   -1.9360 C.2     1  UNL1        0.0984
      7 O           0.6110   -1.6189   -1.9215 O.2     1  UNL1       -0.4701
      8 C           0.1111   -2.0987   -0.6764 C.3     1  UNL1        0.2093
      9 O          -1.3297   -2.0524   -0.7254 O.3     1  UNL1       -0.3286
     10 C          -1.6908   -0.8115   -0.1203 C.3     1  UNL1        0.1377
     11 C          -2.9877   -0.8893    0.5738 C.2     1  UNL1        0.0652
     12 C          -4.1996   -0.5150    0.1277 C.2     1  UNL1       -0.0745
     13 C          -4.4662    0.0133   -1.2435 C.3     1  UNL1       -0.0460
     14 C          -2.7240   -1.2964    1.9722 C.2     1  UNL1        0.3384
     15 O          -3.5545   -1.5641    2.8197 O.2     1  UNL1       -0.2452
     16 O          -1.3701   -1.2846    2.1668 O.3     1  UNL1       -0.4470
     17 C          -0.7538   -0.6594    1.0462 C.3     1  UNL1        0.1716
     18 C          -0.3407    0.7319    1.3734 C.2     1  UNL1       -0.0409
     19 C           0.9382    0.9379    1.0509 C.2     1  UNL1       -0.0758
     20 C           1.6145   -0.2938    0.4994 C.3     1  UNL1        0.0246
     21 C           0.5224   -1.3702    0.6069 C.3     1  UNL1        0.0784
     22 H           5.5815    1.6584   -2.2240 H       1  UNL1        0.0661
     23 H           4.4022    2.9891   -1.9363 H       1  UNL1        0.0661
     24 H           4.6389    2.3402   -3.5681 H       1  UNL1        0.0661
     25 H           1.9819   -0.5956   -2.9555 H       1  UNL1        0.1029
     26 H           0.3926   -3.1560   -0.6156 H       1  UNL1        0.1060
     27 H          -1.6049   -0.0024   -0.8535 H       1  UNL1        0.0694
     28 H          -5.0535   -0.5761    0.8003 H       1  UNL1        0.0575
     29 H          -3.5721    0.0426   -1.8724 H       1  UNL1        0.0272
     30 H          -4.8576    1.0324   -1.1763 H       1  UNL1        0.0272
     31 H          -5.2059   -0.6139   -1.7494 H       1  UNL1        0.0272
     32 H          -1.0038    1.4756    1.7908 H       1  UNL1        0.0609
     33 H           1.4465    1.8870    1.1833 H       1  UNL1        0.0576
     34 H           2.4400   -0.5677    1.1685 H       1  UNL1        0.0401
     35 H           0.8135   -2.1187    1.3575 H       1  UNL1        0.0414
@<TRIPOS>BOND
     1     1    22    1
     2     1    23    1
     3     1    24    1
     4     2     1    1
     5     3     2    1
     6     4     3    2
     7     5     3    1
     8     6     5    2
     9     6    25    1
    10     7     6    1
    11     8     7    1
    12     8    26    1
    13     9     8    1
    14    10     9    1
    15    10    27    1
    16    11    10    1
    17    12    11    2
    18    12    28    1
    19    13    12    1
    20    13    29    1
    21    13    30    1
    22    13    31    1
    23    14    11    1
    24    15    14    2
    25    16    14    1
    26    17    16    1
    27    17    10    1
    28    18    17    1
    29    18    32    1
    30    19    18    2
    31    19    33    1
    32    20    19    1
    33    20     5    1
    34    20    34    1
    35    21    20    1
    36    21     8    1
    37    21    17    1
    38    21    35    1
@<TRIPOS>MOLECULE
mol_622_akc_157018007784620031
>604.sdf
 38 40 0 0 0
SMALL
GASTEIGER

@<TRIPOS>ATOM
      1 C           0.9485   -0.1083    0.1823 C.3     1  UNL1       -0.0586
      2 C           2.4603   -0.0564   -0.0752 C.3     1  UNL1       -0.0195
      3 C           3.2364   -0.1846    1.2389 C.3     1  UNL1       -0.0586
      4 C           2.8838   -1.1191   -1.0892 C.ar    1  UNL1       -0.0188
      5 C           3.4897   -0.7520   -2.3075 C.ar    1  UNL1        0.0753
      6 N           3.7705    0.5450   -2.5702 N.ar    1  UNL1       -0.2463
      7 C           4.3376    0.8981   -3.7487 C.ar    1  UNL1        0.0734
      8 C           4.6440   -0.0486   -4.7171 C.ar    1  UNL1       -0.0321
      9 C           4.3674   -1.3966   -4.4802 C.ar    1  UNL1       -0.0393
     10 C           4.6937   -2.3959   -5.5576 C.3     1  UNL1       -0.0390
     11 C           3.7919   -1.7717   -3.2458 C.ar    1  UNL1        0.0036
     12 C           3.5138   -3.1184   -2.9274 C.ar    1  UNL1       -0.0523
     13 C           2.9493   -3.4696   -1.7089 C.ar    1  UNL1       -0.0608
     14 C           2.6344   -2.4760   -0.7966 C.ar    1  UNL1       -0.0563
     15 C           4.6286    2.3298   -3.9335 C.ar    1  UNL1        0.0185
     16 C           4.5881    2.9600   -5.1881 C.ar    1  UNL1       -0.0497
     17 C           4.9186    4.3083   -5.3216 C.ar    1  UNL1       -0.0430
     18 C           5.2807    5.0090   -4.1861 C.ar    1  UNL1        0.0276
     19 N           5.3210    4.4614   -2.9552 N.ar    1  UNL1       -0.2626
     20 C           4.9887    3.1462   -2.8600 C.ar    1  UNL1        0.0367
     21 H           0.6410    0.7103    0.8417 H       1  UNL1        0.0235
     22 H           0.3893   -0.0134   -0.7553 H       1  UNL1        0.0235
     23 H           0.6420   -1.0459    0.6592 H       1  UNL1        0.0235
     24 H           2.6724    0.9430   -0.4723 H       1  UNL1        0.0344
     25 H           3.0469   -1.1405    1.7390 H       1  UNL1        0.0235
     26 H           4.3151   -0.1065    1.0646 H       1  UNL1        0.0235
     27 H           2.9502    0.6130    1.9333 H       1  UNL1        0.0235
     28 H           5.1159    0.2502   -5.6471 H       1  UNL1        0.0642
     29 H           5.4281   -3.1229   -5.1973 H       1  UNL1        0.0278
     30 H           3.7847   -2.9149   -5.8795 H       1  UNL1        0.0278
     31 H           5.1197   -1.9105   -6.4424 H       1  UNL1        0.0278
     32 H           3.7412   -3.9172   -3.6285 H       1  UNL1        0.0624
     33 H           2.7479   -4.5119   -1.4769 H       1  UNL1        0.0618
     34 H           2.1814   -2.7628    0.1498 H       1  UNL1        0.0621
     35 H           4.2883    2.4103   -6.0769 H       1  UNL1        0.0625
     36 H           4.8932    4.7967   -6.2893 H       1  UNL1        0.0633
     37 H           5.5538    6.0589   -4.2381 H       1  UNL1        0.0829
     38 H           5.0393    2.7452   -1.8497 H       1  UNL1        0.0836
@<TRIPOS>BOND
     1     1    21    1
     2     1    22    1
     3     1    23    1
     4     2     1    1
     5     2    24    1
     6     3     2    1
     7     3    25    1
     8     3    26    1
     9     3    27    1
    10     4     2    1
    11     5     4   ar
    12     6     5   ar
    13     7     6   ar
    14     8     7   ar
    15     8    28    1
    16     9     8   ar
    17    10     9    1
    18    10    29    1
    19    10    30    1
    20    10    31    1
    21    11     9   ar
    22    11     5   ar
    23    12    11   ar
    24    12    32    1
    25    13    12   ar
    26    13    33    1
    27    14    13   ar
    28    14     4   ar
    29    14    34    1
    30    15     7    1
    31    16    15   ar
    32    16    35    1
    33    17    16   ar
    34    17    36    1
    35    18    17   ar
    36    18    37    1
    37    19    18   ar
    38    20    19   ar
    39    20    15   ar
    40    20    38    1
@<TRIPOS>MOLECULE
mol_623_akc_jbmcl200611004
>605.sdf
 19 20 0 0 0
SMALL
GASTEIGER

@<TRIPOS>ATOM
      1 O           1.9184   -1.1282    2.7899 O.2     1  UNL1       -0.2662
      2 C           1.4553   -1.5268    1.7329 C.ar    1  UNL1        0.2674
      3 N           0.1072   -1.5998    1.4258 N.ar    1  UNL1       -0.3207
      4 C          -0.2566   -0.6046    0.4813 C.ar    1  UNL1        0.0545
      5 C           0.1748   -0.7070   -0.8420 C.ar    1  UNL1        0.0645
      6 C          -0.1671    0.2733   -1.7760 C.ar    1  UNL1       -0.0474
      7 C          -0.9133    1.3778   -1.3615 C.ar    1  UNL1       -0.0609
      8 C          -1.3260    1.4893   -0.0295 C.ar    1  UNL1       -0.0598
      9 C          -1.0008    0.4959    0.8966 C.ar    1  UNL1       -0.0375
     10 C           0.9909   -1.8678   -1.2461 C.ar    1  UNL1        0.2795
     11 O           0.5674   -2.5526   -2.1684 O.2     1  UNL1       -0.2652
     12 N           2.1864   -2.1210   -0.6206 N.ar    1  UNL1       -0.2115
     13 C           2.4116   -1.9772    0.6484 C.ar    1  UNL1        0.0958
     14 H          -0.0335   -2.5079    0.9824 H       1  UNL1        0.1690
     15 H           0.1565    0.1848   -2.8101 H       1  UNL1        0.0626
     16 H          -1.1701    2.1574   -2.0755 H       1  UNL1        0.0618
     17 H          -1.9032    2.3557    0.2876 H       1  UNL1        0.0618
     18 H          -1.3232    0.5883    1.9307 H       1  UNL1        0.0638
     19 H           3.4249   -2.1907    1.0271 H       1  UNL1        0.0886
@<TRIPOS>BOND
     1     2     1    2
     2     3     2   ar
     3     3    14    1
     4     4     3   ar
     5     5     4   ar
     6     6     5   ar
     7     6    15    1
     8     7     6   ar
     9     7    16    1
    10     8     7   ar
    11     8    17    1
    12     9     8   ar
    13     9     4   ar
    14     9    18    1
    15    10     5   ar
    16    11    10    2
    17    12    10   ar
    18    13    12   ar
    19    13     2   ar
    20    13    19    1
@<TRIPOS>MOLECULE
mol_624_akc_jejmech200607013
>606.sdf
 21 21 0 0 0
SMALL
GASTEIGER

@<TRIPOS>ATOM
      1 O           3.5042   -0.5823   -0.6547 O.3     1  UNL1       -0.3819
      2 C           2.4108    0.0715   -0.0059 C.3     1  UNL1        0.1142
      3 C           1.8566   -0.7995    1.0966 C.2     1  UNL1        0.0550
      4 C           2.3515   -2.0009    1.4550 C.2     1  UNL1       -0.0825
      5 C           0.6239   -0.3177    1.8441 C.1     1  UNL1        0.0972
      6 N          -0.3987    0.0819    2.4642 N.1     1  UNL1       -0.1911
      7 C           2.8541    1.4517    0.4547 C.ar    1  UNL1       -0.0141
      8 C           2.2378    2.5919   -0.0900 C.ar    1  UNL1       -0.0547
      9 C           2.6422    3.8745    0.2857 C.ar    1  UNL1       -0.0474
     10 C           3.6717    4.0297    1.2108 C.ar    1  UNL1        0.0179
     11 BR          4.2354    5.7664    1.7034 Br      1  UNL1       -0.0503
     12 C           4.2917    2.9158    1.7685 C.ar    1  UNL1       -0.0474
     13 C           3.8819    1.6314    1.3984 C.ar    1  UNL1       -0.0547
     14 H           4.3179   -0.3492   -0.1854 H       1  UNL1        0.2107
     15 H           1.6296    0.1744   -0.7698 H       1  UNL1        0.0701
     16 H           1.8965   -2.5914    2.2457 H       1  UNL1        0.0545
     17 H           3.2100   -2.4385    0.9550 H       1  UNL1        0.0545
     18 H           1.4353    2.4908   -0.8191 H       1  UNL1        0.0622
     19 H           2.1509    4.7399   -0.1473 H       1  UNL1        0.0629
     20 H           5.0974    3.0351    2.4911 H       1  UNL1        0.0629
     21 H           4.3784    0.7763    1.8504 H       1  UNL1        0.0622
@<TRIPOS>BOND
     1     1    14    1
     2     2     1    1
     3     2    15    1
     4     3     2    1
     5     4     3    2
     6     4    16    1
     7     4    17    1
     8     5     3    1
     9     6     5    3
    10     7     2    1
    11     8     7   ar
    12     8    18    1
    13     9     8   ar
    14     9    19    1
    15    10     9   ar
    16    11    10    1
    17    12    10   ar
    18    12    20    1
    19    13    12   ar
    20    13     7   ar
    21    13    21    1
@<TRIPOS>MOLECULE
mol_625_akc_aac00936_06
>607.sdf
 48 51 0 0 0
SMALL
GASTEIGER

@<TRIPOS>ATOM
      1 C           1.2577   -0.2552   -0.7386 C.3     1  UNL1        0.0788
      2 O           2.4584    0.0149   -0.0187 O.3     1  UNL1       -0.4950
      3 C           3.0925   -1.0523    0.5592 C.ar    1  UNL1        0.1242
      4 C           4.2473   -0.7315    1.2640 C.ar    1  UNL1       -0.0116
      5 C           5.0068   -1.7214    1.9072 C.ar    1  UNL1        0.0009
      6 C           4.6213   -3.0641    1.9124 C.ar    1  UNL1        0.0909
      7 C           3.4461   -3.3755    1.1376 C.ar    1  UNL1        0.1372
      8 O           3.1312   -4.7088    1.0249 O.3     1  UNL1       -0.4942
      9 C           1.9799   -5.0795    0.2721 C.3     1  UNL1        0.0788
     10 C           2.7031   -2.3762    0.4842 C.ar    1  UNL1        0.0226
     11 C           5.4139   -3.9872    2.7043 C.ar    1  UNL1        0.1983
     12 C           4.7742   -5.3144    3.0715 C.3     1  UNL1        0.0220
     13 N           6.6517   -3.6085    3.2197 N.ar    1  UNL1       -0.1600
     14 C           7.0241   -2.2825    3.1442 C.ar    1  UNL1        0.1877
     15 C           8.3164   -1.7023    3.6789 C.3     1  UNL1        0.0212
     16 C           6.1692   -1.3410    2.5521 C.ar    1  UNL1        0.0135
     17 C           7.5555   -4.5975    3.8718 C.ar    1  UNL1        0.2212
     18 C           8.1147   -4.2397    5.1113 C.ar    1  UNL1        0.0108
     19 C           8.9867   -5.0892    5.7824 C.ar    1  UNL1       -0.0549
     20 C           9.1678   -6.3833    5.3162 C.ar    1  UNL1       -0.0536
     21 C           8.5062   -6.8265    4.1639 C.ar    1  UNL1       -0.0116
     22 C           7.7840   -5.9151    3.3495 C.ar    1  UNL1        0.0538
     23 C           7.3229   -6.4323    2.1111 C.ar    1  UNL1       -0.0477
     24 C           7.2913   -7.8114    1.8586 C.ar    1  UNL1       -0.0610
     25 C           7.8567   -8.6945    2.7605 C.ar    1  UNL1       -0.0612
     26 C           8.5314   -8.1967    3.8686 C.ar    1  UNL1       -0.0538
     27 H           1.4533   -0.9074   -1.5958 H       1  UNL1        0.0660
     28 H           0.4927   -0.6831   -0.0829 H       1  UNL1        0.0660
     29 H           0.8757    0.6951   -1.1231 H       1  UNL1        0.0660
     30 H           4.5470    0.3132    1.2940 H       1  UNL1        0.0660
     31 H           1.0721   -4.6496    0.7074 H       1  UNL1        0.0660
     32 H           2.0895   -4.8029   -0.7818 H       1  UNL1        0.0660
     33 H           1.8879   -6.1700    0.3215 H       1  UNL1        0.0660
     34 H           1.8245   -2.6383   -0.0916 H       1  UNL1        0.0691
     35 H           3.7434   -5.1513    3.4096 H       1  UNL1        0.0336
     36 H           4.7546   -5.9915    2.2110 H       1  UNL1        0.0336
     37 H           5.2596   -5.8142    3.9085 H       1  UNL1        0.0336
     38 H           8.2158   -1.4706    4.7489 H       1  UNL1        0.0336
     39 H           9.1686   -2.3583    3.5011 H       1  UNL1        0.0336
     40 H           8.5535   -0.7486    3.1942 H       1  UNL1        0.0336
     41 H           6.4545   -0.2897    2.5549 H       1  UNL1        0.0686
     42 H           7.8690   -3.3107    5.6096 H       1  UNL1        0.0684
     43 H           9.4798   -4.7718    6.6975 H       1  UNL1        0.0620
     44 H           9.8036   -7.0599    5.8871 H       1  UNL1        0.0624
     45 H           6.9011   -5.7857    1.3477 H       1  UNL1        0.0626
     46 H           6.7946   -8.1945    0.9676 H       1  UNL1        0.0618
     47 H           7.7936   -9.7689    2.5983 H       1  UNL1        0.0618
     48 H           9.0265   -8.9024    4.5349 H       1  UNL1        0.0624
@<TRIPOS>UNITY_ATOM_ATTR
13 1
charge 1
@<TRIPOS>BOND
     1     1    27    1
     2     1    28    1
     3     1    29    1
     4     2     1    1
     5     3     2    1
     6     4     3   ar
     7     4    30    1
     8     5     4   ar
     9     6     5   ar
    10     7     6   ar
    11     8     7    1
    12     9     8    1
    13     9    31    1
    14     9    32    1
    15     9    33    1
    16    10     7   ar
    17    10     3   ar
    18    10    34    1
    19    11     6   ar
    20    12    11    1
    21    12    35    1
    22    12    36    1
    23    12    37    1
    24    13    11   ar
    25    14    13   ar
    26    15    14    1
    27    15    38    1
    28    15    39    1
    29    15    40    1
    30    16    14   ar
    31    16     5   ar
    32    16    41    1
    33    17    13    1
    34    18    17   ar
    35    18    42    1
    36    19    18   ar
    37    19    43    1
    38    20    19   ar
    39    20    44    1
    40    21    20   ar
    41    22    21   ar
    42    22    17   ar
    43    23    22   ar
    44    23    45    1
    45    24    23   ar
    46    24    46    1
    47    25    24   ar
    48    25    47    1
    49    26    25   ar
    50    26    21   ar
    51    26    48    1
@<TRIPOS>MOLECULE
mol_628_akc_ge_632r11
>609.sdf
 90 89 0 0 0
SMALL
GASTEIGER

@<TRIPOS>ATOM
      1 C           0.9334   -0.4383   -0.4999 C.3     1  UNL1       -0.0653
      2 C           2.4514   -0.4123   -0.4416 C.3     1  UNL1       -0.0559
      3 C           2.9860   -1.5149    0.4681 C.3     1  UNL1       -0.0533
      4 C           4.5128   -1.4920    0.5276 C.3     1  UNL1       -0.0531
      5 C           5.0369   -2.5990    1.4371 C.3     1  UNL1       -0.0531
      6 C           6.5601   -2.5797    1.4971 C.3     1  UNL1       -0.0531
      7 C           7.0822   -3.6871    2.4076 C.3     1  UNL1       -0.0531
      8 C           8.6054   -3.6624    2.4669 C.3     1  UNL1       -0.0531
      9 C           9.1342   -4.7660    3.3764 C.3     1  UNL1       -0.0531
     10 C          10.6578   -4.7307    3.4279 C.3     1  UNL1       -0.0531
     11 C          11.2005   -5.8291    4.3348 C.3     1  UNL1       -0.0531
     12 C          12.7249   -5.7862    4.3796 C.3     1  UNL1       -0.0531
     13 C          13.2671   -6.8817    5.2884 C.3     1  UNL1       -0.0530
     14 C          14.7940   -6.8535    5.3490 C.3     1  UNL1       -0.0523
     15 C          15.2958   -7.9651    6.2662 C.3     1  UNL1       -0.0440
     16 C          16.8170   -7.9839    6.3722 C.3     1  UNL1       -0.0063
     17 S          17.2661   -9.3540    7.4793 S.3     1  UNL1       -0.1603
     18 C          19.0841   -9.1844    7.4407 C.3     1  UNL1        0.0007
     19 C          19.7724  -10.2525    8.3097 C.3     1  UNL1        0.0152
     20 C          19.4388  -11.6862    7.8725 C.3     1  UNL1        0.0530
     21 O          20.1013  -12.6211    8.7337 O.3     1  UNL1       -0.3826
     22 C          19.7952  -13.9650    8.3798 C.3     1  UNL1        0.0365
     23 C          21.2911  -10.0478    8.2760 C.3     1  UNL1        0.0605
     24 O          21.6244   -8.7652    8.7804 O.3     1  UNL1       -0.3271
     25 P          23.3340   -8.5008    8.7727 P.3     1  UNL1        0.2127
     26 O          23.2717   -7.9297    7.3566 O.2     1  UNL1       -0.5172
     27 O          23.2420   -7.6009   10.0100 O.co2   1  UNL1       -0.4373
     28 O          25.0437   -8.2364    8.7649 O.3     1  UNL1       -0.3221
     29 C          25.6893   -9.0480    9.7250 C.3     1  UNL1        0.0947
     30 C          27.1801   -8.7450    9.7230 C.3     1  UNL1       -0.0064
     31 N          27.5552   -7.2866   10.0879 N.4     1  UNL1        0.2385
     32 C          26.9861   -6.3086    9.0469 C.3     1  UNL1       -0.0417
     33 C          26.9945   -6.9082   11.4492 C.3     1  UNL1       -0.0417
     34 C          29.0649   -7.1785   10.0920 C.3     1  UNL1       -0.0417
     35 H           0.5659    0.3587   -1.1567 H       1  UNL1        0.0230
     36 H           0.5736   -1.3960   -0.8896 H       1  UNL1        0.0230
     37 H           0.5015   -0.2883    0.4947 H       1  UNL1        0.0230
     38 H           2.8552   -0.5355   -1.4537 H       1  UNL1        0.0263
     39 H           2.7833    0.5663   -0.0762 H       1  UNL1        0.0263
     40 H           2.5781   -1.3904    1.4787 H       1  UNL1        0.0265
     41 H           2.6483   -2.4922    0.1017 H       1  UNL1        0.0265
     42 H           4.9232   -1.6175   -0.4819 H       1  UNL1        0.0265
     43 H           4.8534   -0.5171    0.8968 H       1  UNL1        0.0265
     44 H           4.6262   -2.4737    2.4464 H       1  UNL1        0.0265
     45 H           4.6954   -3.5737    1.0674 H       1  UNL1        0.0265
     46 H           6.9724   -2.7062    0.4888 H       1  UNL1        0.0265
     47 H           6.9036   -1.6055    1.8672 H       1  UNL1        0.0265
     48 H           6.6710   -3.5622    3.4168 H       1  UNL1        0.0265
     49 H           6.7421   -4.6620    2.0375 H       1  UNL1        0.0265
     50 H           9.0161   -3.7878    1.4574 H       1  UNL1        0.0265
     51 H           8.9448   -2.6868    2.8352 H       1  UNL1        0.0265
     52 H           8.7259   -4.6416    4.3867 H       1  UNL1        0.0265
     53 H           8.7979   -5.7431    3.0089 H       1  UNL1        0.0265
     54 H          11.0641   -4.8535    2.4163 H       1  UNL1        0.0265
     55 H          10.9918   -3.7520    3.7941 H       1  UNL1        0.0265
     56 H          10.7954   -5.7064    5.3468 H       1  UNL1        0.0265
     57 H          10.8669   -6.8084    3.9697 H       1  UNL1        0.0265
     58 H          13.1284   -5.9117    3.3673 H       1  UNL1        0.0265
     59 H          13.0571   -4.8063    4.7427 H       1  UNL1        0.0265
     60 H          12.8570   -6.7569    6.2985 H       1  UNL1        0.0265
     61 H          12.9318   -7.8608    4.9245 H       1  UNL1        0.0265
     62 H          15.2092   -6.9836    4.3420 H       1  UNL1        0.0266
     63 H          15.1342   -5.8800    5.7207 H       1  UNL1        0.0266
     64 H          14.8542   -7.8278    7.2618 H       1  UNL1        0.0273
     65 H          14.9353   -8.9282    5.8816 H       1  UNL1        0.0273
     66 H          17.2683   -8.1431    5.3871 H       1  UNL1        0.0376
     67 H          17.1867   -7.0400    6.7848 H       1  UNL1        0.0376
     68 H          19.4204   -9.2686    6.4015 H       1  UNL1        0.0380
     69 H          19.3326   -8.1806    7.8009 H       1  UNL1        0.0380
     70 H          19.4505  -10.1148    9.3517 H       1  UNL1        0.0353
     71 H          18.3635  -11.8774    7.9327 H       1  UNL1        0.0563
     72 H          19.7665  -11.8568    6.8393 H       1  UNL1        0.0563
     73 H          18.7159  -14.1376    8.4129 H       1  UNL1        0.0523
     74 H          20.1866  -14.1906    7.3851 H       1  UNL1        0.0523
     75 H          20.2768  -14.6259    9.1057 H       1  UNL1        0.0523
     76 H          21.7981  -10.7918    8.8996 H       1  UNL1        0.0568
     77 H          21.6708  -10.1453    7.2527 H       1  UNL1        0.0568
     78 H          25.2563   -8.9045   10.7191 H       1  UNL1        0.0618
     79 H          25.5360  -10.0972    9.4485 H       1  UNL1        0.0618
     80 H          27.6895   -9.3912   10.4481 H       1  UNL1        0.0838
     81 H          27.6045   -8.9290    8.7290 H       1  UNL1        0.0838
     82 H          25.9154   -6.1738    9.2082 H       1  UNL1        0.0778
     83 H          27.4804   -5.3426    9.1916 H       1  UNL1        0.0778
     84 H          27.2107   -6.6950    8.0480 H       1  UNL1        0.0778
     85 H          27.3331   -7.6522   12.1778 H       1  UNL1        0.0778
     86 H          27.3779   -5.9194   11.7141 H       1  UNL1        0.0778
     87 H          25.9038   -6.8825   11.4024 H       1  UNL1        0.0778
     88 H          29.4610   -7.8668   10.8444 H       1  UNL1        0.0778
     89 H          29.4365   -7.4434    9.0991 H       1  UNL1        0.0778
     90 H          29.3432   -6.1498   10.3408 H       1  UNL1        0.0778
@<TRIPOS>UNITY_ATOM_ATTR
27 1
charge -1
31 1
charge 1
@<TRIPOS>BOND
     1     1    35    1
     2     1    36    1
     3     1    37    1
     4     2     1    1
     5     2    38    1
     6     2    39    1
     7     3     2    1
     8     3    40    1
     9     3    41    1
    10     4     3    1
    11     4    42    1
    12     4    43    1
    13     5     4    1
    14     5    44    1
    15     5    45    1
    16     6     5    1
    17     6    46    1
    18     6    47    1
    19     7     6    1
    20     7    48    1
    21     7    49    1
    22     8     7    1
    23     8    50    1
    24     8    51    1
    25     9     8    1
    26     9    52    1
    27     9    53    1
    28    10     9    1
    29    10    54    1
    30    10    55    1
    31    11    10    1
    32    11    56    1
    33    11    57    1
    34    12    11    1
    35    12    58    1
    36    12    59    1
    37    13    12    1
    38    13    60    1
    39    13    61    1
    40    14    13    1
    41    14    62    1
    42    14    63    1
    43    15    14    1
    44    15    64    1
    45    15    65    1
    46    16    15    1
    47    16    66    1
    48    16    67    1
    49    17    16    1
    50    18    17    1
    51    18    68    1
    52    18    69    1
    53    19    18    1
    54    19    70    1
    55    20    19    1
    56    20    71    1
    57    20    72    1
    58    21    20    1
    59    22    21    1
    60    22    73    1
    61    22    74    1
    62    22    75    1
    63    23    19    1
    64    23    76    1
    65    23    77    1
    66    24    23    1
    67    25    24    1
    68    26    25    2
    69    27    25    1
    70    28    25    1
    71    29    28    1
    72    29    78    1
    73    29    79    1
    74    30    29    1
    75    30    80    1
    76    30    81    1
    77    31    30    1
    78    32    31    1
    79    32    82    1
    80    32    83    1
    81    32    84    1
    82    33    31    1
    83    33    85    1
    84    33    86    1
    85    33    87    1
    86    34    31    1
    87    34    88    1
    88    34    89    1
    89    34    90    1
@<TRIPOS>MOLECULE
mol_629_akc_jejmech200603033
>610.sdf
 80 83 0 0 0
SMALL
GASTEIGER

@<TRIPOS>ATOM
      1 C           7.2848    4.6525    1.1833 C.3     1  UNL1       -0.0627
      2 C           6.7144    3.2912    0.7838 C.3     1  UNL1       -0.0467
      3 C           7.2003    2.9205   -0.6200 C.3     1  UNL1       -0.0627
      4 C           7.1018    2.2445    1.8446 C.3     1  UNL1       -0.0507
      5 C           6.5669    0.8430    1.5447 C.3     1  UNL1       -0.0526
      6 C           6.9925   -0.1542    2.6275 C.3     1  UNL1       -0.0502
      7 C           6.5259   -1.6102    2.3602 C.3     1  UNL1       -0.0405
      8 C           7.0948   -2.1033    1.0235 C.3     1  UNL1       -0.0621
      9 C           6.9330   -2.5244    3.5521 C.3     1  UNL1       -0.0328
     10 C           6.2910   -2.0601    4.8942 C.3     1  UNL1       -0.0492
     11 C           5.8623   -3.3158    5.6559 C.3     1  UNL1       -0.0491
     12 C           6.6621   -4.4192    4.9851 C.3     1  UNL1       -0.0315
     13 C           6.2540   -5.8689    5.2667 C.3     1  UNL1       -0.0230
     14 C           6.2606   -6.2316    6.7799 C.3     1  UNL1        0.0208
     15 C           7.5427   -5.7827    7.5192 C.3     1  UNL1       -0.0287
     16 N           7.4814   -6.1290    8.9657 N.4     1  UNL1        0.2189
     17 C           6.0302   -7.7111    6.9707 C.2     1  UNL1       -0.0758
     18 C           6.1998   -8.6472    6.0206 C.2     1  UNL1       -0.0644
     19 C           5.9401  -10.1074    6.3360 C.3     1  UNL1       -0.0051
     20 C           7.1207  -10.9910    5.9281 C.3     1  UNL1        0.0590
     21 O           6.7695  -12.3503    6.1533 O.3     1  UNL1       -0.3915
     22 C           7.4897  -10.7782    4.4623 C.3     1  UNL1       -0.0258
     23 C           7.7779   -9.3047    4.1675 C.3     1  UNL1       -0.0413
     24 C           6.6313   -8.3353    4.5781 C.3     1  UNL1       -0.0078
     25 C           5.4076   -8.5717    3.6548 C.3     1  UNL1       -0.0556
     26 C           7.1592   -6.8498    4.4606 C.3     1  UNL1       -0.0281
     27 C           7.4328   -6.4069    2.9961 C.3     1  UNL1       -0.0486
     28 C           7.6915   -4.9067    2.8113 C.3     1  UNL1       -0.0468
     29 C           6.6022   -4.0489    3.4832 C.3     1  UNL1       -0.0259
     30 C           5.2105   -4.3050    2.8544 C.3     1  UNL1       -0.0590
     31 H           6.9884    5.4258    0.4670 H       1  UNL1        0.0232
     32 H           6.9194    4.9537    2.1708 H       1  UNL1        0.0232
     33 H           8.3797    4.6273    1.2204 H       1  UNL1        0.0232
     34 H           5.6204    3.3744    0.7556 H       1  UNL1        0.0295
     35 H           8.2756    2.7129   -0.6261 H       1  UNL1        0.0232
     36 H           6.6788    2.0385   -1.0029 H       1  UNL1        0.0232
     37 H           7.0087    3.7355   -1.3267 H       1  UNL1        0.0232
     38 H           8.1953    2.1999    1.9314 H       1  UNL1        0.0268
     39 H           6.7222    2.5688    2.8221 H       1  UNL1        0.0268
     40 H           5.4735    0.8662    1.4701 H       1  UNL1        0.0265
     41 H           6.9597    0.5227    0.5780 H       1  UNL1        0.0265
     42 H           8.0863   -0.1399    2.7225 H       1  UNL1        0.0268
     43 H           6.5931    0.1999    3.5852 H       1  UNL1        0.0268
     44 H           5.4306   -1.6005    2.2821 H       1  UNL1        0.0301
     45 H           8.1883   -2.0724    1.0238 H       1  UNL1        0.0233
     46 H           6.7831   -3.1201    0.7843 H       1  UNL1        0.0233
     47 H           6.7329   -1.5010    0.1859 H       1  UNL1        0.0233
     48 H           8.0228   -2.4267    3.6735 H       1  UNL1        0.0309
     49 H           5.4290   -1.4000    4.7548 H       1  UNL1        0.0268
     50 H           7.0383   -1.5079    5.4778 H       1  UNL1        0.0268
     51 H           4.7844   -3.4797    5.5507 H       1  UNL1        0.0268
     52 H           6.0716   -3.2216    6.7252 H       1  UNL1        0.0268
     53 H           7.7080   -4.2982    5.3133 H       1  UNL1        0.0309
     54 H           5.2173   -5.9975    4.9319 H       1  UNL1        0.0314
     55 H           5.4084   -5.7128    7.2399 H       1  UNL1        0.0398
     56 H           8.4442   -6.2629    7.1280 H       1  UNL1        0.0819
     57 H           7.6772   -4.6994    7.4938 H       1  UNL1        0.0819
     58 H           6.6386   -5.7477    9.4141 H       1  UNL1        0.1994
     59 H           7.4792   -7.1501    9.1021 H       1  UNL1        0.1994
     60 H           8.2977   -5.7587    9.4686 H       1  UNL1        0.1994
     61 H           5.6594   -8.0301    7.9457 H       1  UNL1        0.0577
     62 H           5.0257  -10.4435    5.8320 H       1  UNL1        0.0335
     63 H           5.7413  -10.2578    7.4053 H       1  UNL1        0.0335
     64 H           7.9853  -10.7620    6.5635 H       1  UNL1        0.0596
     65 H           7.4771  -12.9122    5.7926 H       1  UNL1        0.2098
     66 H           8.3718  -11.3813    4.2145 H       1  UNL1        0.0290
     67 H           6.6898  -11.1537    3.8128 H       1  UNL1        0.0290
     68 H           8.6992   -9.0279    4.6978 H       1  UNL1        0.0274
     69 H           7.9963   -9.2046    3.0977 H       1  UNL1        0.0274
     70 H           4.6136   -7.8404    3.8361 H       1  UNL1        0.0238
     71 H           5.6791   -8.5203    2.5962 H       1  UNL1        0.0238
     72 H           4.9605   -9.5612    3.7942 H       1  UNL1        0.0238
     73 H           8.1467   -6.8170    4.9456 H       1  UNL1        0.0312
     74 H           8.3064   -6.9499    2.6138 H       1  UNL1        0.0268
     75 H           6.6047   -6.6778    2.3379 H       1  UNL1        0.0268
     76 H           8.6757   -4.6670    3.2333 H       1  UNL1        0.0271
     77 H           7.7671   -4.7004    1.7407 H       1  UNL1        0.0271
     78 H           4.4210   -3.7353    3.3540 H       1  UNL1        0.0235
     79 H           5.1815   -4.0290    1.7979 H       1  UNL1        0.0235
     80 H           4.9145   -5.3563    2.8929 H       1  UNL1        0.0235
@<TRIPOS>UNITY_ATOM_ATTR
16 1
charge 1
@<TRIPOS>BOND
     1     1    31    1
     2     1    32    1
     3     1    33    1
     4     2     1    1
     5     2    34    1
     6     3     2    1
     7     3    35    1
     8     3    36    1
     9     3    37    1
    10     4     2    1
    11     4    38    1
    12     4    39    1
    13     5     4    1
    14     5    40    1
    15     5    41    1
    16     6     5    1
    17     6    42    1
    18     6    43    1
    19     7     6    1
    20     7    44    1
    21     8     7    1
    22     8    45    1
    23     8    46    1
    24     8    47    1
    25     9     7    1
    26     9    48    1
    27    10     9    1
    28    10    49    1
    29    10    50    1
    30    11    10    1
    31    11    51    1
    32    11    52    1
    33    12    11    1
    34    12    53    1
    35    13    12    1
    36    13    54    1
    37    14    13    1
    38    14    55    1
    39    15    14    1
    40    15    56    1
    41    15    57    1
    42    16    15    1
    43    16    58    1
    44    16    59    1
    45    16    60    1
    46    17    14    1
    47    17    61    1
    48    18    17    2
    49    19    18    1
    50    19    62    1
    51    19    63    1
    52    20    19    1
    53    20    64    1
    54    21    20    1
    55    21    65    1
    56    22    20    1
    57    22    66    1
    58    22    67    1
    59    23    22    1
    60    23    68    1
    61    23    69    1
    62    24    23    1
    63    24    18    1
    64    24    25    1
    65    25    70    1
    66    25    71    1
    67    25    72    1
    68    26    24    1
    69    26    13    1
    70    26    73    1
    71    27    26    1
    72    27    74    1
    73    27    75    1
    74    28    27    1
    75    28    76    1
    76    28    77    1
    77    29    28    1
    78    29     9    1
    79    29    12    1
    80    29    30    1
    81    30    78    1
    82    30    79    1
    83    30    80    1
@<TRIPOS>MOLECULE
mol_62_akc_c4md00298a
>61_alt.sdf
 54 59 0 0 0
SMALL
GASTEIGER

@<TRIPOS>ATOM
      1 C           1.3641    2.4281   -0.5031 C.3     1  UNL1        0.0820
      2 O           2.7786    2.2490   -0.4616 O.3     1  UNL1       -0.4634
      3 C           3.1932    0.9579   -0.5762 C.2     1  UNL1        0.3575
      4 O           2.4685   -0.0161   -0.6997 O.2     1  UNL1       -0.2432
      5 C           4.6900    0.8962   -0.5459 C.ar    1  UNL1        0.1487
      6 N           5.3536    2.0720   -0.3637 N.ar    1  UNL1       -0.2394
      7 C           6.7157    2.0899   -0.3751 C.ar    1  UNL1        0.1046
      8 C           7.4484    3.4383   -0.3754 C.3     1  UNL1        0.1400
      9 N           8.2481    3.4685    0.8554 N.pl3   1  UNL1       -0.3200
     10 C           9.1340    4.5431    0.9627 C.ar    1  UNL1        0.0410
     11 C           9.5994    4.9441    2.2211 C.ar    1  UNL1       -0.0401
     12 C          10.5620    5.9510    2.3400 C.ar    1  UNL1       -0.0600
     13 C          11.0916    6.5525    1.2011 C.ar    1  UNL1       -0.0609
     14 C          10.6740    6.1302   -0.0590 C.ar    1  UNL1       -0.0478
     15 C           9.7119    5.1182   -0.1706 C.ar    1  UNL1        0.0581
     16 C           9.3548    4.5702   -1.4938 C.2     1  UNL1        0.2544
     17 O           9.9968    4.9524   -2.4723 O.2     1  UNL1       -0.2695
     18 N           8.3287    3.6332   -1.5393 N.am    1  UNL1       -0.2427
     19 C           8.0256    2.9986   -2.7821 C.ar    1  UNL1        0.0389
     20 C           9.0443    2.2800   -3.4269 C.ar    1  UNL1       -0.0388
     21 C           8.7458    1.4350   -4.4975 C.ar    1  UNL1       -0.0416
     22 C           7.4373    1.3484   -4.9636 C.ar    1  UNL1        0.0411
     23 CL          7.0601    0.2759   -6.2542 Cl      1  UNL1       -0.0835
     24 C           6.4286    2.1124   -4.3800 C.ar    1  UNL1       -0.0416
     25 C           6.7207    2.9319   -3.2852 C.ar    1  UNL1       -0.0388
     26 C           7.3734    0.8569   -0.5052 C.ar    1  UNL1        0.0726
     27 N           8.7235    0.5900   -0.5152 N.ar    1  UNL1       -0.3526
     28 C           8.9622   -0.7180   -0.8443 C.ar    1  UNL1        0.0475
     29 C           7.7196   -1.3389   -0.9731 C.ar    1  UNL1        0.0075
     30 C           7.6928   -2.7045   -1.3229 C.ar    1  UNL1       -0.0520
     31 C           8.8994   -3.3861   -1.5310 C.ar    1  UNL1       -0.0611
     32 C          10.1223   -2.7312   -1.3947 C.ar    1  UNL1       -0.0598
     33 C          10.1769   -1.3821   -1.0460 C.ar    1  UNL1       -0.0378
     34 C           6.7128   -0.3447   -0.7341 C.ar    1  UNL1        0.0115
     35 C           5.3098   -0.3345   -0.7507 C.ar    1  UNL1       -0.0195
     36 H           0.9380    1.9759   -1.4038 H       1  UNL1        0.0661
     37 H           0.9044    2.0113    0.3977 H       1  UNL1        0.0661
     38 H           1.1627    3.5030   -0.5306 H       1  UNL1        0.0661
     39 H           6.7168    4.2568   -0.3620 H       1  UNL1        0.0781
     40 H           7.6523    3.3741    1.6760 H       1  UNL1        0.1482
     41 H           9.2234    4.4684    3.1234 H       1  UNL1        0.0636
     42 H          10.9106    6.2538    3.3250 H       1  UNL1        0.0618
     43 H          11.8489    7.3274    1.2919 H       1  UNL1        0.0618
     44 H          11.1161    6.5684   -0.9514 H       1  UNL1        0.0626
     45 H          10.0635    2.3077   -3.0486 H       1  UNL1        0.0637
     46 H           9.5322    0.8286   -4.9380 H       1  UNL1        0.0633
     47 H           5.4100    2.0549   -4.7538 H       1  UNL1        0.0633
     48 H           5.9132    3.5000   -2.8295 H       1  UNL1        0.0637
     49 H           9.4398    1.2910   -0.3736 H       1  UNL1        0.1660
     50 H           6.7482   -3.2245   -1.4510 H       1  UNL1        0.0624
     51 H           8.8822   -4.4369   -1.8099 H       1  UNL1        0.0618
     52 H          11.0479   -3.2765   -1.5659 H       1  UNL1        0.0618
     53 H          11.1286   -0.8678   -0.9488 H       1  UNL1        0.0638
     54 H           4.7364   -1.2356   -0.9372 H       1  UNL1        0.0648
@<TRIPOS>BOND
     1     1    36    1
     2     1    37    1
     3     1    38    1
     4     2     1    1
     5     3     2    1
     6     4     3    2
     7     5     3    1
     8     6     5   ar
     9     7     6   ar
    10     8     7    1
    11     8    39    1
    12     9     8    1
    13     9    40    1
    14    10     9    1
    15    11    10   ar
    16    11    41    1
    17    12    11   ar
    18    12    42    1
    19    13    12   ar
    20    13    43    1
    21    14    13   ar
    22    14    44    1
    23    15    14   ar
    24    15    10   ar
    25    16    15    1
    26    17    16    2
    27    18    16   am
    28    18     8    1
    29    19    18    1
    30    20    19   ar
    31    20    45    1
    32    21    20   ar
    33    21    46    1
    34    22    21   ar
    35    23    22    1
    36    24    22   ar
    37    24    47    1
    38    25    24   ar
    39    25    19   ar
    40    25    48    1
    41    26     7   ar
    42    27    26   ar
    43    27    49    1
    44    28    27   ar
    45    29    28   ar
    46    30    29   ar
    47    30    50    1
    48    31    30   ar
    49    31    51    1
    50    32    31   ar
    51    32    52    1
    52    33    32   ar
    53    33    28   ar
    54    33    53    1
    55    34    29   ar
    56    34    26   ar
    57    35    34   ar
    58    35     5   ar
    59    35    54    1
@<TRIPOS>MOLECULE
mol_630_akc_jm060156v
>611.sdf
 33 34 0 0 0
SMALL
GASTEIGER

@<TRIPOS>ATOM
      1 C           2.3941    2.0259   -1.6628 C.3     1  UNL1       -0.0383
      2 C           1.0702    1.3293   -1.5172 C.ar    1  UNL1       -0.0310
      3 C          -0.0361    2.0293   -1.0010 C.ar    1  UNL1       -0.0423
      4 C          -1.3180    1.4446   -0.8720 C.ar    1  UNL1        0.0315
      5 S          -2.5106    2.5706   -0.1355 S.3     1  UNL1       -0.0834
      6 C          -4.0825    1.7479   -0.0263 C.ar    1  UNL1        0.0731
      7 C          -4.4650    0.9851    1.0940 C.ar    1  UNL1        0.1426
      8 C          -5.7021    0.3102    1.1733 C.ar    1  UNL1       -0.0186
      9 C          -6.6144    0.3819    0.1131 C.ar    1  UNL1        0.0592
     10 C          -6.2829    1.1694   -0.9973 C.ar    1  UNL1       -0.0186
     11 C          -5.0456    1.8419   -1.0490 C.ar    1  UNL1        0.1426
     12 N          -4.7885    2.6172   -2.2518 N.pl3   1  UNL1        0.0576
     13 O          -4.6698    3.8414   -2.1238 O.2     1  UNL1       -0.1261
     14 O          -4.7696    1.9935   -3.3205 O.2     1  UNL1       -0.1261
     15 C          -7.9209   -0.3787    0.1382 C.3     1  UNL1        0.4176
     16 F          -8.0825   -1.1342    1.2568 F       1  UNL1       -0.1659
     17 F          -8.9969    0.4491    0.0770 F       1  UNL1       -0.1659
     18 F          -8.0355   -1.2308   -0.9148 F       1  UNL1       -0.1659
     19 N          -3.5752    0.8187    2.2323 N.pl3   1  UNL1        0.0576
     20 O          -2.5183    0.2088    2.0493 O.2     1  UNL1       -0.1261
     21 O          -3.9853    1.2541    3.3187 O.2     1  UNL1       -0.1261
     22 C          -1.4629    0.1168   -1.3086 C.ar    1  UNL1        0.0561
     23 CL         -2.9444   -0.7711   -1.3358 Cl      1  UNL1       -0.0823
     24 C          -0.3582   -0.6004   -1.7922 C.ar    1  UNL1       -0.0237
     25 C           0.8966   -0.0044   -1.8883 C.ar    1  UNL1        0.0453
     26 CL          2.2049   -0.9628   -2.4795 Cl      1  UNL1       -0.0832
     27 H           3.1544    1.5410   -1.0424 H       1  UNL1        0.0278
     28 H           2.7132    2.0127   -2.7105 H       1  UNL1        0.0278
     29 H           2.3338    3.0750   -1.3555 H       1  UNL1        0.0278
     30 H           0.1133    3.0658   -0.6918 H       1  UNL1        0.0632
     31 H          -5.9394   -0.2881    2.0562 H       1  UNL1        0.0646
     32 H          -6.9821    1.2466   -1.8324 H       1  UNL1        0.0646
     33 H          -0.4797   -1.6355   -2.1035 H       1  UNL1        0.0647
@<TRIPOS>BOND
     1     1    27    1
     2     1    28    1
     3     1    29    1
     4     2     1    1
     5     3     2   ar
     6     3    30    1
     7     4     3   ar
     8     5     4    1
     9     6     5    1
    10     7     6   ar
    11     8     7   ar
    12     8    31    1
    13     9     8   ar
    14    10     9   ar
    15    10    32    1
    16    11    10   ar
    17    11     6   ar
    18    12    11    1
    19    13    12    2
    20    14    12    2
    21    15     9    1
    22    16    15    1
    23    17    15    1
    24    18    15    1
    25    19     7    1
    26    20    19    2
    27    21    19    2
    28    22     4   ar
    29    23    22    1
    30    24    22   ar
    31    24    33    1
    32    25    24   ar
    33    25     2   ar
    34    26    25    1
@<TRIPOS>MOLECULE
mol_631_akc_lajop20070004
>612.sdf
 34 34 0 0 0
SMALL
GASTEIGER

@<TRIPOS>ATOM
      1 C           3.1086   -0.5218    0.8522 C.3     1  UNL1        0.0788
      2 O           2.4744    0.1422   -0.2376 O.3     1  UNL1       -0.4948
      3 C           3.2793    0.4311   -1.3114 C.ar    1  UNL1        0.1252
      4 C           2.9515    1.5732   -2.0687 C.ar    1  UNL1        0.0154
      5 C           1.7537    2.4101   -1.7052 C.3     1  UNL1       -0.0344
      6 C           3.7662    1.9168   -3.1689 C.ar    1  UNL1        0.0735
      7 N           3.4221    2.9952   -4.0206 N.pl3   1  UNL1       -0.3548
      8 C           4.8337    1.0559   -3.5461 C.ar    1  UNL1        0.1445
      9 O           5.6149    1.4168   -4.6197 O.3     1  UNL1       -0.4930
     10 C           5.0332    0.9909   -5.8534 C.3     1  UNL1        0.0789
     11 C           5.1744   -0.0711   -2.7869 C.ar    1  UNL1        0.0021
     12 C           4.3645   -0.3751   -1.6793 C.ar    1  UNL1       -0.0127
     13 C           6.3501   -0.9910   -3.0775 C.3     1  UNL1       -0.0179
     14 C           6.1055   -1.8918   -4.2874 C.3     1  UNL1       -0.0585
     15 C           7.6906   -0.2597   -3.1833 C.3     1  UNL1       -0.0585
     16 H           3.1949   -1.5936    0.6515 H       1  UNL1        0.0660
     17 H           4.0867   -0.0847    1.0822 H       1  UNL1        0.0660
     18 H           2.4739   -0.3974    1.7345 H       1  UNL1        0.0660
     19 H           2.0295    3.4676   -1.6402 H       1  UNL1        0.0279
     20 H           0.9660    2.2838   -2.4553 H       1  UNL1        0.0279
     21 H           1.3320    2.1494   -0.7304 H       1  UNL1        0.0279
     22 H           4.2404    3.3109   -4.5351 H       1  UNL1        0.1424
     23 H           2.9636    3.7596   -3.5387 H       1  UNL1        0.1424
     24 H           5.8433    0.6340   -6.4983 H       1  UNL1        0.0660
     25 H           4.3047    0.1807   -5.7385 H       1  UNL1        0.0660
     26 H           4.5631    1.8446   -6.3528 H       1  UNL1        0.0660
     27 H           4.5849   -1.2746   -1.1097 H       1  UNL1        0.0658
     28 H           6.4557   -1.6641   -2.2153 H       1  UNL1        0.0345
     29 H           6.2357   -1.3580   -5.2321 H       1  UNL1        0.0235
     30 H           6.8205   -2.7239   -4.2908 H       1  UNL1        0.0235
     31 H           5.0977   -2.3192   -4.2753 H       1  UNL1        0.0235
     32 H           7.7655    0.3495   -4.0901 H       1  UNL1        0.0235
     33 H           7.8481    0.3981   -2.3217 H       1  UNL1        0.0235
     34 H           8.5147   -0.9797   -3.2125 H       1  UNL1        0.0235
@<TRIPOS>BOND
     1     1    16    1
     2     1    17    1
     3     1    18    1
     4     2     1    1
     5     3     2    1
     6     4     3   ar
     7     5     4    1
     8     5    19    1
     9     5    20    1
    10     5    21    1
    11     6     4   ar
    12     7     6    1
    13     7    22    1
    14     7    23    1
    15     8     6   ar
    16     9     8    1
    17    10     9    1
    18    10    24    1
    19    10    25    1
    20    10    26    1
    21    11     8   ar
    22    12    11   ar
    23    12     3   ar
    24    12    27    1
    25    13    11    1
    26    13    28    1
    27    14    13    1
    28    14    29    1
    29    14    30    1
    30    14    31    1
    31    15    13    1
    32    15    32    1
    33    15    33    1
    34    15    34    1
@<TRIPOS>MOLECULE
mol_632_akc_jbmcl200602012
>613.sdf
 33 34 0 0 0
SMALL
GASTEIGER

@<TRIPOS>ATOM
      1 C           4.5711    0.1009   -1.1505 C.3     1  UNL1       -0.0134
      2 S           3.0253    0.1522   -0.2153 S.3     1  UNL1       -0.1267
      3 C           3.4416    1.4330    1.0142 C.ar    1  UNL1        0.0348
      4 C           4.0874    1.1121    2.2525 C.ar    1  UNL1        0.0010
      5 C           4.2904    2.1754    3.1866 C.ar    1  UNL1       -0.0225
      6 C           4.8922    1.9410    4.5631 C.3     1  UNL1       -0.0378
      7 C           3.9366    3.5125    2.8503 C.ar    1  UNL1        0.0771
      8 C           4.2110    4.5852    3.7794 C.1     1  UNL1        0.1013
      9 N           4.4482    5.4568    4.5028 N.1     1  UNL1       -0.1908
     10 C           3.3470    3.8310    1.6076 C.ar    1  UNL1        0.0611
     11 N           2.8546    5.1324    1.3604 N.pl3   1  UNL1       -0.3559
     12 C           3.0521    2.7686    0.7252 C.ar    1  UNL1        0.0875
     13 C           2.3718    3.0819   -0.5072 C.1     1  UNL1        0.1022
     14 N           1.8553    3.3943   -1.4992 N.1     1  UNL1       -0.1908
     15 C           4.5496   -0.2789    2.5677 C.ar    1  UNL1       -0.0163
     16 C           5.8855   -0.5365    2.9429 C.ar    1  UNL1       -0.0513
     17 C           6.3249   -1.8307    3.2481 C.ar    1  UNL1       -0.0259
     18 C           5.4500   -2.8985    3.1214 C.ar    1  UNL1        0.1234
     19 F           5.8791   -4.1417    3.3744 F       1  UNL1       -0.2055
     20 C           4.1349   -2.6908    2.7377 C.ar    1  UNL1       -0.0259
     21 C           3.6817   -1.3878    2.5021 C.ar    1  UNL1       -0.0513
     22 H           4.7647    1.0666   -1.6236 H       1  UNL1        0.0344
     23 H           5.4085   -0.1658   -0.5019 H       1  UNL1        0.0344
     24 H           4.4813   -0.6578   -1.9330 H       1  UNL1        0.0344
     25 H           5.9370    2.2707    4.5719 H       1  UNL1        0.0278
     26 H           4.3362    2.4924    5.3294 H       1  UNL1        0.0278
     27 H           4.8463    0.8983    4.8836 H       1  UNL1        0.0278
     28 H           2.6640    5.3799    0.3899 H       1  UNL1        0.1424
     29 H           3.3048    5.9003    1.8560 H       1  UNL1        0.1424
     30 H           6.6025    0.2785    3.0259 H       1  UNL1        0.0624
     31 H           7.3440   -2.0099    3.5776 H       1  UNL1        0.0646
     32 H           3.4659   -3.5385    2.6238 H       1  UNL1        0.0646
     33 H           2.6345   -1.2560    2.2355 H       1  UNL1        0.0624
@<TRIPOS>BOND
     1     1    22    1
     2     1    23    1
     3     1    24    1
     4     2     1    1
     5     3     2    1
     6     4     3   ar
     7     5     4   ar
     8     6     5    1
     9     6    25    1
    10     6    26    1
    11     6    27    1
    12     7     5   ar
    13     8     7    1
    14     9     8    3
    15    10     7   ar
    16    11    10    1
    17    11    28    1
    18    11    29    1
    19    12    10   ar
    20    12     3   ar
    21    13    12    1
    22    14    13    3
    23    15     4    1
    24    16    15   ar
    25    16    30    1
    26    17    16   ar
    27    17    31    1
    28    18    17   ar
    29    19    18    1
    30    20    18   ar
    31    20    32    1
    32    21    20   ar
    33    21    15   ar
    34    21    33    1
@<TRIPOS>MOLECULE
mol_633_akc_jbmc200510005
>614.sdf
 39 40 0 0 0
SMALL
GASTEIGER

@<TRIPOS>ATOM
      1 C           1.1554   -0.1584    0.1466 C.3     1  UNL1        0.0788
      2 O           2.5757   -0.0926    0.1540 O.3     1  UNL1       -0.4949
      3 C           3.1487    1.1480    0.1154 C.ar    1  UNL1        0.1271
      4 C           2.4690    2.3657    0.0847 C.ar    1  UNL1        0.0227
      5 C           3.1636    3.5914    0.0204 C.ar    1  UNL1        0.1379
      6 O           2.5035    4.7892   -0.0738 O.3     1  UNL1       -0.4942
      7 C           1.1008    4.8198    0.1700 C.3     1  UNL1        0.0788
      8 C           4.5774    3.5984   -0.0027 C.ar    1  UNL1        0.1047
      9 C           5.4347    4.8283   -0.1107 C.2     1  UNL1        0.1931
     10 O           6.6382    4.6953   -0.3479 O.2     1  UNL1       -0.2870
     11 C           4.8798    6.1901    0.0904 C.2     1  UNL1       -0.0135
     12 C           5.5203    7.2505   -0.4275 C.2     1  UNL1       -0.0507
     13 C           4.9480    8.5893   -0.3034 C.ar    1  UNL1       -0.0185
     14 C           4.1527    9.1007   -1.3348 C.ar    1  UNL1        0.0227
     15 C           3.5530   10.3587   -1.1845 C.ar    1  UNL1        0.2737
     16 C           3.7497   11.1087   -0.0172 C.ar    1  UNL1        0.0156
     17 C           4.5515   10.5961    1.0027 C.ar    1  UNL1       -0.0548
     18 C           5.1465    9.3407    0.8605 C.ar    1  UNL1       -0.0542
     19 N           2.7015   10.8893   -2.2549 N.pl3   1  UNL1        0.0796
     20 O           2.5429   10.1915   -3.2670 O.co2   1  UNL1       -0.5760
     21 O           2.1795   12.0000   -2.0810 O.2     1  UNL1        0.0414
     22 C           5.2407    2.3524    0.0329 C.ar    1  UNL1        0.1346
     23 O           6.6075    2.2136    0.0035 O.3     1  UNL1       -0.5058
     24 C           4.5376    1.1496    0.0927 C.ar    1  UNL1        0.0225
     25 H           0.7378    0.3011    1.0484 H       1  UNL1        0.0660
     26 H           0.7407    0.3003   -0.7583 H       1  UNL1        0.0660
     27 H           0.8673   -1.2135    0.1442 H       1  UNL1        0.0660
     28 H           1.3867    2.3592    0.0889 H       1  UNL1        0.0691
     29 H           0.5549    4.3298   -0.6422 H       1  UNL1        0.0660
     30 H           0.8527    4.3793    1.1416 H       1  UNL1        0.0660
     31 H           0.7903    5.8689    0.1938 H       1  UNL1        0.0660
     32 H           3.9616    6.3154    0.6433 H       1  UNL1        0.0656
     33 H           6.4495    7.1558   -0.9835 H       1  UNL1        0.0625
     34 H           3.9968    8.5114   -2.2368 H       1  UNL1        0.0691
     35 H           3.2851   12.0850    0.1133 H       1  UNL1        0.0685
     36 H           4.7083   11.1697    1.9142 H       1  UNL1        0.0620
     37 H           5.7629    8.9471    1.6672 H       1  UNL1        0.0623
     38 H           7.0030    3.1027   -0.1450 H       1  UNL1        0.2922
     39 H           5.0827    0.2087    0.1072 H       1  UNL1        0.0691
@<TRIPOS>UNITY_ATOM_ATTR
19 1
charge 1
20 1
charge -1
@<TRIPOS>BOND
     1     1    25    1
     2     1    26    1
     3     1    27    1
     4     2     1    1
     5     3     2    1
     6     4     3   ar
     7     4    28    1
     8     5     4   ar
     9     6     5    1
    10     7     6    1
    11     7    29    1
    12     7    30    1
    13     7    31    1
    14     8     5   ar
    15     9     8    1
    16    10     9    2
    17    11     9    1
    18    11    32    1
    19    12    11    2
    20    12    33    1
    21    13    12    1
    22    14    13   ar
    23    14    34    1
    24    15    14   ar
    25    16    15   ar
    26    16    35    1
    27    17    16   ar
    28    17    36    1
    29    18    17   ar
    30    18    13   ar
    31    18    37    1
    32    19    15    1
    33    20    19    1
    34    21    19    2
    35    22     8   ar
    36    23    22    1
    37    23    38    1
    38    24    22   ar
    39    24     3   ar
    40    24    39    1
@<TRIPOS>MOLECULE
mol_634_akc_np0502600
>615.sdf
 44 46 0 0 0
SMALL
GASTEIGER

@<TRIPOS>ATOM
      1 C           7.0256   -0.6129   -1.8172 C.3     1  UNL1       -0.0440
      2 C           5.8861   -0.5592   -0.8399 C.2     1  UNL1       -0.0793
      3 C           4.8210   -1.6063   -1.0086 C.3     1  UNL1       -0.0440
      4 C           5.8128    0.4011    0.1019 C.2     1  UNL1       -0.0808
      5 C           4.7076    0.5378    1.1154 C.3     1  UNL1       -0.0051
      6 C           5.1733    1.1479    2.4183 C.ar    1  UNL1        0.0093
      7 C           5.7091    0.3709    3.4689 C.ar    1  UNL1       -0.0041
      8 C           6.0649    0.9921    4.6843 C.ar    1  UNL1       -0.0499
      9 C           5.9135    2.3693    4.8653 C.ar    1  UNL1       -0.0159
     10 C           5.4254    3.1323    3.8171 C.ar    1  UNL1        0.1585
     11 O           5.2688    4.4879    3.9196 O.3     1  UNL1       -0.5033
     12 C           5.0684    2.5323    2.6099 C.ar    1  UNL1        0.1623
     13 O           4.6055    3.3363    1.6005 O.3     1  UNL1       -0.5031
     14 C           5.9253   -1.0833    3.3600 C.ar    1  UNL1        0.0648
     15 C           7.0936   -1.5685    2.9183 C.ar    1  UNL1        0.1039
     16 O           7.4310   -2.8939    2.8067 O.2     1  UNL1       -0.4618
     17 C           6.5485   -3.8207    3.3060 C.ar    1  UNL1        0.1454
     18 C           6.9857   -5.1476    3.3132 C.ar    1  UNL1        0.0231
     19 C           6.1597   -6.1401    3.8264 C.ar    1  UNL1        0.1239
     20 O           6.6297   -7.4200    3.8270 O.3     1  UNL1       -0.5065
     21 C           4.9007   -5.8306    4.3305 C.ar    1  UNL1        0.0223
     22 C           4.4643   -4.5016    4.3150 C.ar    1  UNL1        0.1347
     23 O           3.2357   -4.2115    4.8364 O.3     1  UNL1       -0.5058
     24 C           5.2831   -3.4857    3.7979 C.ar    1  UNL1        0.1060
     25 C           4.8754   -2.0590    3.7585 C.ar    1  UNL1        0.2037
     26 O           3.7431   -1.6765    4.0331 O.2     1  UNL1       -0.2863
     27 H           7.5544   -1.5673   -1.7276 H       1  UNL1        0.0274
     28 H           6.6524   -0.5143   -2.8418 H       1  UNL1        0.0274
     29 H           7.7532    0.1882   -1.6494 H       1  UNL1        0.0274
     30 H           4.7304   -2.2192   -0.1064 H       1  UNL1        0.0274
     31 H           3.8544   -1.1375   -1.2240 H       1  UNL1        0.0274
     32 H           5.0502   -2.2792   -1.8410 H       1  UNL1        0.0274
     33 H           6.5891    1.1633    0.1447 H       1  UNL1        0.0575
     34 H           3.9118    1.1563    0.6825 H       1  UNL1        0.0357
     35 H           4.2298   -0.4253    1.3251 H       1  UNL1        0.0357
     36 H           6.4521    0.3946    5.5082 H       1  UNL1        0.0625
     37 H           6.1816    2.8160    5.8166 H       1  UNL1        0.0655
     38 H           5.4916    4.7495    4.8293 H       1  UNL1        0.2923
     39 H           4.6230    4.2391    1.9754 H       1  UNL1        0.2923
     40 H           7.9196   -0.9479    2.5935 H       1  UNL1        0.1037
     41 H           7.9692   -5.4045    2.9290 H       1  UNL1        0.0691
     42 H           5.9605   -8.0105    4.2110 H       1  UNL1        0.2921
     43 H           4.2677   -6.6112    4.7388 H       1  UNL1        0.0691
     44 H           2.7731   -5.0188    5.1076 H       1  UNL1        0.2922
@<TRIPOS>BOND
     1     1    27    1
     2     1    28    1
     3     1    29    1
     4     2     1    1
     5     3     2    1
     6     3    30    1
     7     3    31    1
     8     3    32    1
     9     4     2    2
    10     4    33    1
    11     5     4    1
    12     5    34    1
    13     5    35    1
    14     6     5    1
    15     7     6   ar
    16     8     7   ar
    17     8    36    1
    18     9     8   ar
    19     9    37    1
    20    10     9   ar
    21    11    10    1
    22    11    38    1
    23    12    10   ar
    24    12     6   ar
    25    13    12    1
    26    13    39    1
    27    14     7    1
    28    15    14   ar
    29    15    40    1
    30    16    15   ar
    31    17    16   ar
    32    18    17   ar
    33    18    41    1
    34    19    18   ar
    35    20    19    1
    36    20    42    1
    37    21    19   ar
    38    21    43    1
    39    22    21   ar
    40    23    22    1
    41    23    44    1
    42    24    22   ar
    43    24    17   ar
    44    25    24   ar
    45    25    14   ar
    46    26    25    2
@<TRIPOS>MOLECULE
mol_635_akc_np0502600
>616.sdf
 35 38 0 0 0
SMALL
GASTEIGER

@<TRIPOS>ATOM
      1 C           1.4600    0.2803   -0.6699 C.3     1  UNL1        0.0788
      2 O           2.5587   -0.0892    0.1555 O.3     1  UNL1       -0.4950
      3 C           3.1109   -1.3248   -0.0616 C.ar    1  UNL1        0.1236
      4 C           2.6817   -2.2453   -1.0224 C.ar    1  UNL1       -0.0191
      5 C           3.3148   -3.4901   -1.1677 C.ar    1  UNL1       -0.0468
      6 C           4.3927   -3.8125   -0.3236 C.ar    1  UNL1        0.0312
      7 C           4.7893   -2.8750    0.6170 C.ar    1  UNL1        0.1398
      8 O           5.8365   -3.3522    1.3419 O.2     1  UNL1       -0.4539
      9 C           6.1105   -4.6174    0.8936 C.ar    1  UNL1        0.1500
     10 C           5.2709   -4.9282   -0.1680 C.ar    1  UNL1        0.0677
     11 C           5.2920   -6.1412   -0.9557 C.2     1  UNL1        0.1544
     12 O           4.3885   -6.4735   -1.7171 O.2     1  UNL1       -0.2956
     13 C           7.1579   -5.3198    1.6398 C.ar    1  UNL1        0.0630
     14 C           8.2679   -4.6463    2.2132 C.ar    1  UNL1        0.1312
     15 O           8.4411   -3.2894    2.1118 O.3     1  UNL1       -0.5059
     16 C           9.2642   -5.3289    2.9166 C.ar    1  UNL1        0.0260
     17 C           9.1370   -6.6919    3.0449 C.ar    1  UNL1        0.1697
     18 O           9.9974   -7.5225    3.6887 O.3     1  UNL1       -0.4525
     19 C           9.3567   -8.7973    3.4812 C.3     1  UNL1        0.2332
     20 O           8.1194   -8.7000    2.7452 O.3     1  UNL1       -0.4526
     21 C           8.0661   -7.3622    2.5095 C.ar    1  UNL1        0.1671
     22 C           7.0635   -6.7120    1.8187 C.ar    1  UNL1       -0.0019
     23 C           4.1877   -1.6295    0.7818 C.ar    1  UNL1        0.0230
     24 H           1.7576    0.3304   -1.7227 H       1  UNL1        0.0660
     25 H           0.6135   -0.4002   -0.5296 H       1  UNL1        0.0660
     26 H           1.1352    1.2807   -0.3682 H       1  UNL1        0.0660
     27 H           1.8485   -2.0312   -1.6851 H       1  UNL1        0.0654
     28 H           2.9686   -4.1954   -1.9199 H       1  UNL1        0.0626
     29 H           6.1872   -6.7754   -0.8545 H       1  UNL1        0.1083
     30 H           7.6120   -2.9020    1.7704 H       1  UNL1        0.2922
     31 H          10.1060   -4.7994    3.3508 H       1  UNL1        0.0692
     32 H          10.0438   -9.4484    2.9282 H       1  UNL1        0.1166
     33 H           9.1479   -9.2517    4.4562 H       1  UNL1        0.1166
     34 H           6.2224   -7.2893    1.4524 H       1  UNL1        0.0663
     35 H           4.5341   -0.9303    1.5335 H       1  UNL1        0.0691
@<TRIPOS>BOND
     1     1    24    1
     2     1    25    1
     3     1    26    1
     4     2     1    1
     5     3     2    1
     6     4     3   ar
     7     4    27    1
     8     5     4   ar
     9     5    28    1
    10     6     5   ar
    11     7     6   ar
    12     8     7   ar
    13     9     8   ar
    14    10     9   ar
    15    10     6   ar
    16    11    10    1
    17    11    29    1
    18    12    11    2
    19    13     9    1
    20    14    13   ar
    21    15    14    1
    22    15    30    1
    23    16    14   ar
    24    16    31    1
    25    17    16   ar
    26    18    17    1
    27    19    18    1
    28    19    32    1
    29    19    33    1
    30    20    19    1
    31    21    20    1
    32    21    17   ar
    33    22    21   ar
    34    22    13   ar
    35    22    34    1
    36    23     7   ar
    37    23     3   ar
    38    23    35    1
@<TRIPOS>MOLECULE
mol_636_akc_jbmc200507043
>617.sdf
 52 54 0 0 0
SMALL
GASTEIGER

@<TRIPOS>ATOM
      1 C           2.5448   -0.9890   -1.5650 C.3     1  UNL1       -0.0587
      2 C           2.8292   -0.1675   -0.3108 C.3     1  UNL1       -0.0215
      3 C           3.9709   -0.7856    0.5079 C.3     1  UNL1       -0.0587
      4 C           3.1306    1.2797   -0.6496 C.ar    1  UNL1       -0.0448
      5 C           2.3060    2.3051   -0.1712 C.ar    1  UNL1       -0.0580
      6 C           2.6639    3.6428   -0.3468 C.ar    1  UNL1       -0.0574
      7 C           3.8934    3.9810   -0.9400 C.ar    1  UNL1       -0.0352
      8 C           4.6534    2.9588   -1.5214 C.ar    1  UNL1       -0.0574
      9 C           4.2691    1.6267   -1.3884 C.ar    1  UNL1       -0.0580
     10 C           4.5080    5.3803   -0.7755 C.3     1  UNL1        0.0473
     11 C           4.1813    5.9176    0.6348 C.2     1  UNL1        0.0234
     12 C           4.5601    5.0470    1.8004 C.2     1  UNL1        0.1585
     13 C           5.7331    4.0863    1.6963 C.3     1  UNL1       -0.0016
     14 O           3.8993    5.0331    2.8429 O.2     1  UNL1       -0.2926
     15 C           3.4460    7.0441    0.7548 C.2     1  UNL1        0.0135
     16 C           2.8632    7.6189    2.0252 C.3     1  UNL1       -0.0261
     17 N           3.1092    7.7705   -0.3851 N.pl3   1  UNL1       -0.3036
     18 C           3.4921    7.4976   -1.6845 C.ar    1  UNL1        0.1158
     19 C           4.1571    6.3442   -1.9001 C.ar    1  UNL1        0.0673
     20 C           4.7115    6.0669   -3.2435 C.ar    1  UNL1        0.2622
     21 O           5.5122    5.1519   -3.4117 O.2     1  UNL1       -0.2671
     22 N           4.3232    6.9075   -4.2636 N.ar    1  UNL1       -0.2637
     23 C           4.8091    6.5961   -5.5962 C.3     1  UNL1        0.0196
     24 C           3.6428    8.0906   -4.0604 C.ar    1  UNL1        0.3328
     25 O           3.4161    8.8818   -4.9759 O.2     1  UNL1       -0.2462
     26 N           3.2444    8.3572   -2.7467 N.ar    1  UNL1       -0.2843
     27 C           2.5830    9.6441   -2.5799 C.3     1  UNL1        0.0178
     28 H           2.3684   -2.0390   -1.3070 H       1  UNL1        0.0235
     29 H           1.6505   -0.6148   -2.0747 H       1  UNL1        0.0235
     30 H           3.3739   -0.9556   -2.2786 H       1  UNL1        0.0235
     31 H           1.9296   -0.2058    0.3183 H       1  UNL1        0.0343
     32 H           4.9342   -0.7263   -0.0106 H       1  UNL1        0.0235
     33 H           4.0836   -0.2686    1.4683 H       1  UNL1        0.0235
     34 H           3.7733   -1.8414    0.7180 H       1  UNL1        0.0235
     35 H           1.4085    2.0741    0.3983 H       1  UNL1        0.0620
     36 H           2.0268    4.4071    0.0948 H       1  UNL1        0.0621
     37 H           5.5945    3.1766   -2.0226 H       1  UNL1        0.0621
     38 H           4.9109    0.8572   -1.8101 H       1  UNL1        0.0620
     39 H           5.6024    5.2810   -0.8076 H       1  UNL1        0.0450
     40 H           6.2413    4.0412    2.6639 H       1  UNL1        0.0309
     41 H           5.3647    3.0894    1.4496 H       1  UNL1        0.0309
     42 H           6.4658    4.4130    0.9610 H       1  UNL1        0.0309
     43 H           3.3394    8.5801    2.2528 H       1  UNL1        0.0290
     44 H           1.7905    7.7984    1.8838 H       1  UNL1        0.0290
     45 H           2.9480    6.9956    2.9108 H       1  UNL1        0.0290
     46 H           2.5651    8.6054   -0.2182 H       1  UNL1        0.1532
     47 H           5.8998    6.4924   -5.5712 H       1  UNL1        0.0458
     48 H           4.3808    5.6385   -5.9083 H       1  UNL1        0.0458
     49 H           4.5473    7.3593   -6.3334 H       1  UNL1        0.0458
     50 H           3.2857   10.4384   -2.8516 H       1  UNL1        0.0458
     51 H           1.7255    9.6956   -3.2604 H       1  UNL1        0.0458
     52 H           2.2203    9.8369   -1.5711 H       1  UNL1        0.0458
@<TRIPOS>BOND
     1     1    28    1
     2     1    29    1
     3     1    30    1
     4     2     1    1
     5     2    31    1
     6     3     2    1
     7     3    32    1
     8     3    33    1
     9     3    34    1
    10     4     2    1
    11     5     4   ar
    12     5    35    1
    13     6     5   ar
    14     6    36    1
    15     7     6   ar
    16     8     7   ar
    17     8    37    1
    18     9     8   ar
    19     9     4   ar
    20     9    38    1
    21    10     7    1
    22    10    39    1
    23    11    10    1
    24    12    11    1
    25    13    12    1
    26    13    40    1
    27    13    41    1
    28    13    42    1
    29    14    12    2
    30    15    11    2
    31    16    15    1
    32    16    43    1
    33    16    44    1
    34    16    45    1
    35    17    15    1
    36    17    46    1
    37    18    17    1
    38    19    18   ar
    39    19    10    1
    40    20    19   ar
    41    21    20    2
    42    22    20   ar
    43    23    22    1
    44    23    47    1
    45    23    48    1
    46    23    49    1
    47    24    22   ar
    48    25    24    2
    49    26    24   ar
    50    26    18   ar
    51    27    26    1
    52    27    50    1
    53    27    51    1
    54    27    52    1
@<TRIPOS>MOLECULE
mol_637_akc_jbmc200507043
>617_2.sdf
 52 54 0 0 0
SMALL
GASTEIGER

@<TRIPOS>ATOM
      1 C           6.5308   -2.5710   10.4278 C.3     1  UNL1       -0.0587
      2 C           5.4032   -3.0666    9.5192 C.3     1  UNL1       -0.0215
      3 C           4.2076   -3.5586   10.3363 C.3     1  UNL1       -0.0587
      4 C           4.9877   -2.0002    8.5248 C.ar    1  UNL1       -0.0448
      5 C           5.1390   -2.2349    7.1537 C.ar    1  UNL1       -0.0580
      6 C           4.7709   -1.2656    6.2208 C.ar    1  UNL1       -0.0574
      7 C           4.2646   -0.0224    6.6315 C.ar    1  UNL1       -0.0352
      8 C           4.1185    0.2103    8.0085 C.ar    1  UNL1       -0.0574
      9 C           4.4594   -0.7719    8.9402 C.ar    1  UNL1       -0.0580
     10 C           3.9561    1.0578    5.5782 C.3     1  UNL1        0.0473
     11 C           2.7937    1.9601    5.9960 C.2     1  UNL1        0.0234
     12 C           1.3894    1.4629    5.7856 C.2     1  UNL1        0.1585
     13 C           1.0752   -0.0159    5.8034 C.3     1  UNL1       -0.0016
     14 O           0.4725    2.2577    5.5619 O.2     1  UNL1       -0.2926
     15 C           3.0623    3.2087    6.4566 C.2     1  UNL1        0.0135
     16 C           2.0548    4.1873    7.0125 C.3     1  UNL1       -0.0261
     17 N           4.3761    3.6780    6.4589 N.pl3   1  UNL1       -0.3036
     18 C           5.4402    3.0766    5.7992 C.ar    1  UNL1        0.1158
     19 C           5.2334    1.8397    5.3129 C.ar    1  UNL1        0.0673
     20 C           6.2763    1.1834    4.5047 C.ar    1  UNL1        0.2622
     21 O           5.9985    0.2264    3.7890 O.2     1  UNL1       -0.2671
     22 N           7.5397    1.7096    4.6168 N.ar    1  UNL1       -0.2637
     23 C           8.6284    0.9385    4.0461 C.3     1  UNL1        0.0196
     24 C           7.7822    2.9853    5.0837 C.ar    1  UNL1        0.3328
     25 O           8.8980    3.5066    5.0162 O.2     1  UNL1       -0.2462
     26 N           6.6849    3.6677    5.6265 N.ar    1  UNL1       -0.2843
     27 C           6.9957    4.9978    6.1280 C.3     1  UNL1        0.0178
     28 H           6.8666   -3.3699   11.0967 H       1  UNL1        0.0235
     29 H           7.3932   -2.2437    9.8354 H       1  UNL1        0.0235
     30 H           6.2164   -1.7255   11.0495 H       1  UNL1        0.0235
     31 H           5.7923   -3.9299    8.9633 H       1  UNL1        0.0343
     32 H           3.8193   -2.7805   11.0024 H       1  UNL1        0.0235
     33 H           3.3889   -3.8754    9.6803 H       1  UNL1        0.0235
     34 H           4.4930   -4.4158   10.9549 H       1  UNL1        0.0235
     35 H           5.5544   -3.1745    6.7958 H       1  UNL1        0.0620
     36 H           4.9045   -1.4880    5.1633 H       1  UNL1        0.0621
     37 H           3.7435    1.1600    8.3832 H       1  UNL1        0.0621
     38 H           4.3209   -0.5594    9.9980 H       1  UNL1        0.0620
     39 H           3.6469    0.5722    4.6426 H       1  UNL1        0.0450
     40 H           0.3507   -0.2175    6.5959 H       1  UNL1        0.0309
     41 H           0.6466   -0.2890    4.8343 H       1  UNL1        0.0309
     42 H           1.9356   -0.6539    5.9694 H       1  UNL1        0.0309
     43 H           2.4103    4.5664    7.9788 H       1  UNL1        0.0290
     44 H           1.9417    5.0414    6.3367 H       1  UNL1        0.0290
     45 H           1.0699    3.7609    7.2075 H       1  UNL1        0.0290
     46 H           4.4758    4.6593    6.6868 H       1  UNL1        0.1532
     47 H           8.7155    0.0020    4.6085 H       1  UNL1        0.0458
     48 H           8.3999    0.6905    3.0047 H       1  UNL1        0.0458
     49 H           9.5856    1.4636    4.0881 H       1  UNL1        0.0458
     50 H           7.7269    4.9069    6.9385 H       1  UNL1        0.0458
     51 H           7.4463    5.5850    5.3216 H       1  UNL1        0.0458
     52 H           6.1293    5.5470    6.4955 H       1  UNL1        0.0458
@<TRIPOS>BOND
     1     1    28    1
     2     1    29    1
     3     1    30    1
     4     2     1    1
     5     2    31    1
     6     3     2    1
     7     3    32    1
     8     3    33    1
     9     3    34    1
    10     4     2    1
    11     5     4   ar
    12     5    35    1
    13     6     5   ar
    14     6    36    1
    15     7     6   ar
    16     8     7   ar
    17     8    37    1
    18     9     8   ar
    19     9     4   ar
    20     9    38    1
    21    11    10    1
    22    12    11    1
    23    13    12    1
    24    13    40    1
    25    13    41    1
    26    13    42    1
    27    14    12    2
    28    15    11    2
    29    16    15    1
    30    16    43    1
    31    16    44    1
    32    16    45    1
    33    17    15    1
    34    17    46    1
    35    18    17    1
    36    19    18   ar
    37    19    10    1
    38    20    19   ar
    39    21    20    2
    40    22    20   ar
    41    23    22    1
    42    23    47    1
    43    23    48    1
    44    23    49    1
    45    24    22   ar
    46    25    24    2
    47    26    24   ar
    48    26    18   ar
    49    27    26    1
    50    27    50    1
    51    27    51    1
    52    27    52    1
    53    10    39    1
    54    10     7    1
@<TRIPOS>MOLECULE
mol_638_akc_ge_34891
>618.sdf
 40 42 0 0 0
SMALL
GASTEIGER

@<TRIPOS>ATOM
      1 C           1.4196    0.6302   -0.7738 C.3     1  UNL1       -0.0470
      2 C           2.7243    0.1211   -0.1769 C.3     1  UNL1        0.0218
      3 N           3.1309   -1.1236   -0.8232 N.ar    1  UNL1       -0.3313
      4 C           2.6824   -2.3551   -0.3763 C.ar    1  UNL1        0.0190
      5 C           2.9066   -3.5416   -0.9538 C.ar    1  UNL1        0.0608
      6 C           2.3476   -4.8028   -0.3052 C.2     1  UNL1        0.0767
      7 O           3.0689   -5.8342   -0.3637 O.co2   1  UNL1       -0.5445
      8 O           1.2445   -4.6412    0.3012 O.co2   1  UNL1       -0.5445
      9 C           3.6871   -3.5432   -2.2012 C.ar    1  UNL1        0.1998
     10 O           3.8646   -4.5223   -2.9195 O.2     1  UNL1       -0.2864
     11 C           4.2323   -2.2443   -2.6597 C.ar    1  UNL1        0.0676
     12 C           5.0277   -2.2133   -3.8018 C.ar    1  UNL1       -0.0087
     13 C           5.4869   -0.9919   -4.2441 C.ar    1  UNL1        0.1639
     14 F           6.2725   -0.9515   -5.3333 F       1  UNL1       -0.2019
     15 C           5.1561    0.1871   -3.5575 C.ar    1  UNL1        0.1595
     16 N           4.3821    0.1616   -2.4450 N.ar    1  UNL1       -0.2113
     17 C           3.9247   -1.0511   -1.9880 C.ar    1  UNL1        0.1467
     18 N           5.6532    1.4151   -4.0050 N.pl3   1  UNL1       -0.3027
     19 C           5.8134    2.4883   -3.0196 C.3     1  UNL1        0.0538
     20 C           4.7214    3.5598   -3.1477 C.3     1  UNL1       -0.0175
     21 N           4.6163    4.0126   -4.5878 N.4     1  UNL1        0.2292
     22 C           4.2910    2.8619   -5.5049 C.3     1  UNL1       -0.0175
     23 C           5.3781    1.7749   -5.4038 C.3     1  UNL1        0.0538
     24 H           1.0993    1.5444   -0.2643 H       1  UNL1        0.0247
     25 H           1.5306    0.8532   -1.8398 H       1  UNL1        0.0247
     26 H           0.6210   -0.1127   -0.6696 H       1  UNL1        0.0247
     27 H           3.4999    0.8925   -0.2430 H       1  UNL1        0.0489
     28 H           2.5757   -0.0504    0.8978 H       1  UNL1        0.0489
     29 H           2.0908   -2.3118    0.5380 H       1  UNL1        0.0817
     30 H           5.2877   -3.1244   -4.3311 H       1  UNL1        0.0655
     31 H           6.7857    2.9606   -3.2108 H       1  UNL1        0.0517
     32 H           5.8612    2.1200   -1.9881 H       1  UNL1        0.0517
     33 H           3.7335    3.1901   -2.8587 H       1  UNL1        0.0829
     34 H           4.9688    4.4498   -2.5613 H       1  UNL1        0.0829
     35 H           3.8948    4.7410   -4.6708 H       1  UNL1        0.2015
     36 H           5.5096    4.4367   -4.8755 H       1  UNL1        0.2015
     37 H           4.2311    3.2707   -6.5183 H       1  UNL1        0.0829
     38 H           3.3067    2.4881   -5.2040 H       1  UNL1        0.0829
     39 H           6.3076    2.1518   -5.8463 H       1  UNL1        0.0517
     40 H           5.0595    0.9243   -6.0167 H       1  UNL1        0.0517
@<TRIPOS>UNITY_ATOM_ATTR
7 1
charge -1
21 1
charge 1
@<TRIPOS>BOND
     1     1    24    1
     2     1    25    1
     3     1    26    1
     4     2     1    1
     5     2    27    1
     6     2    28    1
     7     3     2    1
     8     4     3   ar
     9     4    29    1
    10     5     4   ar
    11     6     5    1
    12     7     6   ar
    13     8     6   ar
    14     9     5   ar
    15    10     9    2
    16    11     9   ar
    17    12    11   ar
    18    12    30    1
    19    13    12   ar
    20    14    13    1
    21    15    13   ar
    22    16    15   ar
    23    17    16   ar
    24    17     3   ar
    25    17    11   ar
    26    18    15    1
    27    19    18    1
    28    19    31    1
    29    19    32    1
    30    20    19    1
    31    20    33    1
    32    20    34    1
    33    21    20    1
    34    21    35    1
    35    21    36    1
    36    22    21    1
    37    22    37    1
    38    22    38    1
    39    23    22    1
    40    23    18    1
    41    23    39    1
    42    23    40    1
@<TRIPOS>MOLECULE
mol_639_akc_jbmc200507005
>619.sdf
 55 57 0 0 0
SMALL
GASTEIGER

@<TRIPOS>ATOM
      1 C           9.1759   -3.7578   -7.2945 C.3     1  UNL1       -0.0440
      2 C           8.5539   -2.8137   -6.3056 C.2     1  UNL1       -0.0796
      3 C           8.9672   -1.3721   -6.4367 C.3     1  UNL1       -0.0440
      4 C           7.6755   -3.2441   -5.3776 C.2     1  UNL1       -0.0851
      5 C           6.9528   -2.3657   -4.3948 C.3     1  UNL1       -0.0306
      6 C           7.2720   -2.7079   -2.9353 C.3     1  UNL1       -0.0060
      7 C           6.6250   -1.7548   -1.8942 C.3     1  UNL1        0.1266
      8 C           5.0942   -1.8846   -1.9043 C.3     1  UNL1       -0.0212
      9 O           7.0342   -2.2476   -0.5948 O.3     1  UNL1       -0.4812
     10 C           7.8665   -1.4879    0.1763 C.ar    1  UNL1        0.1324
     11 C           8.2783   -0.1940   -0.1461 C.ar    1  UNL1        0.0586
     12 C           7.7832    0.4128   -1.3729 C.2     1  UNL1       -0.0478
     13 C           6.9965   -0.3142   -2.1696 C.2     1  UNL1       -0.0405
     14 C           9.1259    0.5011    0.7376 C.ar    1  UNL1        0.1382
     15 O           9.5033    1.7767    0.3736 O.3     1  UNL1       -0.5053
     16 C           9.5584   -0.0851    1.9463 C.ar    1  UNL1        0.0638
     17 C           9.1230   -1.3862    2.2448 C.ar    1  UNL1       -0.0439
     18 C           8.2844   -2.0779    1.3652 C.ar    1  UNL1       -0.0184
     19 C          10.4483    0.6975    2.8636 C.2     1  UNL1        0.1896
     20 O          10.8007    1.8326    2.5362 O.2     1  UNL1       -0.2872
     21 C          10.8860    0.1067    4.1537 C.2     1  UNL1       -0.0137
     22 C          11.6573    0.8054    5.0056 C.2     1  UNL1       -0.0510
     23 C          12.0497    0.1838    6.2667 C.ar    1  UNL1       -0.0247
     24 C          13.2245   -0.5738    6.3439 C.ar    1  UNL1       -0.0511
     25 C          13.5431   -1.2593    7.5187 C.ar    1  UNL1       -0.0196
     26 C          12.6819   -1.1838    8.6096 C.ar    1  UNL1        0.1169
     27 O          12.9427   -1.8527    9.7685 O.3     1  UNL1       -0.5068
     28 C          11.5182   -0.4259    8.5492 C.ar    1  UNL1       -0.0196
     29 C          11.2009    0.2612    7.3772 C.ar    1  UNL1       -0.0511
     30 H           8.9342   -3.4451   -8.3158 H       1  UNL1        0.0274
     31 H          10.2644   -3.7643   -7.1794 H       1  UNL1        0.0274
     32 H           8.8178   -4.7847   -7.1686 H       1  UNL1        0.0274
     33 H           8.1064   -0.7426   -6.6861 H       1  UNL1        0.0274
     34 H           9.4183   -1.0133   -5.5053 H       1  UNL1        0.0274
     35 H           9.7092   -1.2386   -7.2302 H       1  UNL1        0.0274
     36 H           7.4175   -4.3012   -5.3390 H       1  UNL1        0.0571
     37 H           7.1942   -1.3184   -4.5891 H       1  UNL1        0.0309
     38 H           5.8795   -2.4743   -4.5828 H       1  UNL1        0.0309
     39 H           6.9570   -3.7399   -2.7225 H       1  UNL1        0.0310
     40 H           8.3617   -2.7106   -2.7866 H       1  UNL1        0.0310
     41 H           4.6385   -1.1633   -1.2149 H       1  UNL1        0.0271
     42 H           4.6608   -1.7119   -2.8937 H       1  UNL1        0.0271
     43 H           4.7837   -2.8776   -1.5584 H       1  UNL1        0.0271
     44 H           8.0480    1.4374   -1.6083 H       1  UNL1        0.0624
     45 H           6.6082    0.1529   -3.0699 H       1  UNL1        0.0611
     46 H          10.0871    2.1419    1.0737 H       1  UNL1        0.2922
     47 H           9.4044   -1.9067    3.1522 H       1  UNL1        0.0627
     48 H           7.9503   -3.0830    1.6139 H       1  UNL1        0.0654
     49 H          10.5829   -0.8925    4.4216 H       1  UNL1        0.0656
     50 H          11.9989    1.8165    4.8031 H       1  UNL1        0.0625
     51 H          13.8875   -0.6483    5.4848 H       1  UNL1        0.0625
     52 H          14.4518   -1.8516    7.5580 H       1  UNL1        0.0654
     53 H          13.7948   -2.3095    9.6785 H       1  UNL1        0.2921
     54 H          10.8541   -0.3789    9.4082 H       1  UNL1        0.0654
     55 H          10.2820    0.8408    7.3313 H       1  UNL1        0.0625
@<TRIPOS>BOND
     1     1    30    1
     2     1    31    1
     3     1    32    1
     4     2     1    1
     5     3     2    1
     6     3    33    1
     7     3    34    1
     8     3    35    1
     9     4     2    2
    10     4    36    1
    11     5     4    1
    12     5    37    1
    13     5    38    1
    14     6     5    1
    15     6    39    1
    16     6    40    1
    17     8    41    1
    18     8    42    1
    19     8    43    1
    20     9     7    1
    21    10     9    1
    22    11    10   ar
    23    12    11    1
    24    12    44    1
    25    13    12    2
    26    13     7    1
    27    13    45    1
    28    14    11   ar
    29    15    14    1
    30    15    46    1
    31    16    14   ar
    32    17    16   ar
    33    17    47    1
    34    18    17   ar
    35    18    10   ar
    36    18    48    1
    37    19    16    1
    38    20    19    2
    39    21    19    1
    40    21    49    1
    41    22    21    2
    42    22    50    1
    43    23    22    1
    44    24    23   ar
    45    24    51    1
    46    25    24   ar
    47    25    52    1
    48    26    25   ar
    49    27    26    1
    50    27    53    1
    51    28    26   ar
    52    28    54    1
    53    29    28   ar
    54    29    23   ar
    55    29    55    1
    56     7     8    1
    57     7     6    1
@<TRIPOS>MOLECULE
mol_63_akc_s00436_021_07266_w
>62.sdf
 52 52 0 0 0
SMALL
GASTEIGER

@<TRIPOS>ATOM
      1 C           1.3547    2.3169   -1.7296 C.3     1  UNL1        0.0817
      2 O           2.7619    2.1068   -1.6075 O.3     1  UNL1       -0.4664
      3 C           3.1040    1.0090   -0.8620 C.2     1  UNL1        0.3303
      4 O           2.2848    0.2420   -0.3669 O.2     1  UNL1       -0.2484
      5 C           4.6451    0.8512   -0.7505 C.3     1  UNL1        0.1290
      6 C           5.0077   -0.4846   -1.4122 C.3     1  UNL1       -0.0332
      7 C           5.0711    1.0119    0.7353 C.3     1  UNL1       -0.0191
      8 C           4.4683    0.1141    1.8407 C.3     1  UNL1       -0.0443
      9 C           4.7743   -1.3727    1.6775 C.3     1  UNL1       -0.0626
     10 C           5.0069    0.5807    3.2024 C.3     1  UNL1       -0.0626
     11 N           5.2914    1.9351   -1.5430 N.am    1  UNL1       -0.2994
     12 C           6.6447    2.0706   -1.7300 C.2     1  UNL1        0.2237
     13 O           7.4850    1.3994   -1.1372 O.2     1  UNL1       -0.2749
     14 C           7.0753    3.1628   -2.6940 C.3     1  UNL1        0.0703
     15 S           5.8737    3.4157   -4.0493 S.3     1  UNL1       -0.1497
     16 C           6.7686    4.6894   -4.9978 C.3     1  UNL1        0.0122
     17 C           8.0644    4.1517   -5.5984 C.3     1  UNL1        0.0354
     18 N           8.7430    5.1416   -6.4189 N.ar    1  UNL1       -0.3085
     19 C           8.5892    5.2630   -7.7909 C.ar    1  UNL1        0.1082
     20 C           7.6291    4.4573   -8.5945 C.3     1  UNL1       -0.0062
     21 N           9.4064    6.1744   -8.2744 N.ar    1  UNL1       -0.2385
     22 C          10.0943    6.6806   -7.2042 C.ar    1  UNL1        0.0769
     23 C           9.6799    6.0730   -6.0456 C.ar    1  UNL1        0.2157
     24 N          10.1127    6.3470   -4.7186 N.pl3   1  UNL1        0.0750
     25 O           9.5005    5.8061   -3.7900 O.2     1  UNL1       -0.1246
     26 O          11.0603    7.1300   -4.5959 O.2     1  UNL1       -0.1246
     27 H           0.8489    1.4174   -2.0942 H       1  UNL1        0.0661
     28 H           0.9409    2.6321   -0.7663 H       1  UNL1        0.0661
     29 H           1.1937    3.1178   -2.4567 H       1  UNL1        0.0661
     30 H           4.4907   -1.3358   -0.9716 H       1  UNL1        0.0256
     31 H           4.7146   -0.4764   -2.4708 H       1  UNL1        0.0256
     32 H           6.0831   -0.6875   -1.3779 H       1  UNL1        0.0256
     33 H           6.1618    0.9267    0.8101 H       1  UNL1        0.0294
     34 H           4.8461    2.0525    1.0174 H       1  UNL1        0.0294
     35 H           3.3814    0.2457    1.8723 H       1  UNL1        0.0296
     36 H           5.8022   -1.5371    1.3376 H       1  UNL1        0.0232
     37 H           4.6425   -1.9140    2.6201 H       1  UNL1        0.0232
     38 H           4.0862   -1.8358    0.9667 H       1  UNL1        0.0232
     39 H           6.0983    0.4962    3.2476 H       1  UNL1        0.0232
     40 H           4.7375    1.6250    3.3920 H       1  UNL1        0.0232
     41 H           4.5873   -0.0209    4.0160 H       1  UNL1        0.0232
     42 H           4.6850    2.4553   -2.1739 H       1  UNL1        0.1498
     43 H           7.2209    4.0921   -2.1372 H       1  UNL1        0.0471
     44 H           8.0254    2.8341   -3.1227 H       1  UNL1        0.0471
     45 H           6.0981    5.0234   -5.7976 H       1  UNL1        0.0394
     46 H           6.9403    5.5587   -4.3556 H       1  UNL1        0.0394
     47 H           8.7810    3.8092   -4.8490 H       1  UNL1        0.0501
     48 H           7.8633    3.2778   -6.2283 H       1  UNL1        0.0501
     49 H           7.8741    3.3920   -8.5480 H       1  UNL1        0.0307
     50 H           6.6066    4.6021   -8.2331 H       1  UNL1        0.0307
     51 H           7.6610    4.7635   -9.6446 H       1  UNL1        0.0307
     52 H          10.8386    7.4581   -7.3259 H       1  UNL1        0.0869
@<TRIPOS>BOND
     1     1    27    1
     2     1    28    1
     3     1    29    1
     4     2     1    1
     5     3     2    1
     6     4     3    2
     7     6    30    1
     8     6    31    1
     9     6    32    1
    10     7     5    1
    11     7    33    1
    12     7    34    1
    13     8     7    1
    14     8    35    1
    15     9     8    1
    16     9    36    1
    17     9    37    1
    18     9    38    1
    19    10     8    1
    20    10    39    1
    21    10    40    1
    22    10    41    1
    23    11     5    1
    24    11    42    1
    25    12    11   am
    26    13    12    2
    27    14    12    1
    28    14    43    1
    29    14    44    1
    30    15    14    1
    31    16    15    1
    32    16    45    1
    33    16    46    1
    34    17    16    1
    35    17    47    1
    36    17    48    1
    37    18    17    1
    38    19    18   ar
    39    20    19    1
    40    20    49    1
    41    20    50    1
    42    20    51    1
    43    21    19   ar
    44    22    21   ar
    45    22    52    1
    46    23    22   ar
    47    23    18   ar
    48    24    23    1
    49    25    24    2
    50    26    24    2
    51     5     6    1
    52     5     3    1
@<TRIPOS>MOLECULE
mol_640_akc_jbmc200506045
>620.sdf
 31 33 0 0 0
SMALL
GASTEIGER

@<TRIPOS>ATOM
      1 O           1.0221   -0.1960    0.2503 O.3     1  UNL1       -0.3903
      2 C           2.3793    0.1219   -0.0376 C.3     1  UNL1        0.0712
      3 C           2.7825   -0.3738   -1.4050 C.ar    1  UNL1        0.0038
      4 C           3.2974    0.5341   -2.3478 C.ar    1  UNL1       -0.0543
      5 C           3.6893    0.0961   -3.6079 C.ar    1  UNL1       -0.0607
      6 C           3.5730   -1.2517   -3.9327 C.ar    1  UNL1       -0.0525
      7 C           3.0720   -2.1669   -2.9913 C.ar    1  UNL1        0.0013
      8 C           2.9608   -3.5295   -3.2843 C.ar    1  UNL1       -0.0434
      9 C           2.4851   -4.4251   -2.3190 C.ar    1  UNL1        0.0013
     10 C           2.4014   -5.8006   -2.5852 C.ar    1  UNL1       -0.0525
     11 C           1.9477   -6.6770   -1.6066 C.ar    1  UNL1       -0.0607
     12 C           1.5663   -6.1808   -0.3653 C.ar    1  UNL1       -0.0543
     13 C           1.6316   -4.8029   -0.0914 C.ar    1  UNL1        0.0038
     14 C           1.2056   -4.2494    1.2479 C.3     1  UNL1        0.0712
     15 O           0.7353   -5.2662    2.1301 O.3     1  UNL1       -0.3903
     16 C           2.1007   -3.9110   -1.0654 C.ar    1  UNL1        0.0770
     17 N           2.1828   -2.5913   -0.7946 N.ar    1  UNL1       -0.2460
     18 C           2.6719   -1.7334   -1.7151 C.ar    1  UNL1        0.0770
     19 H           0.9220   -1.1369    0.0012 H       1  UNL1        0.2098
     20 H           2.4878    1.2077    0.0426 H       1  UNL1        0.0608
     21 H           3.0173   -0.3319    0.7286 H       1  UNL1        0.0608
     22 H           3.3923    1.5893   -2.0985 H       1  UNL1        0.0622
     23 H           4.0849    0.8020   -4.3338 H       1  UNL1        0.0618
     24 H           3.8794   -1.5858   -4.9215 H       1  UNL1        0.0624
     25 H           3.2573   -3.8982   -4.2634 H       1  UNL1        0.0631
     26 H           2.6968   -6.1977   -3.5535 H       1  UNL1        0.0624
     27 H           1.8919   -7.7438   -1.8067 H       1  UNL1        0.0618
     28 H           1.2139   -6.8738    0.3969 H       1  UNL1        0.0622
     29 H           2.0513   -3.7514    1.7341 H       1  UNL1        0.0608
     30 H           0.3888   -3.5333    1.1057 H       1  UNL1        0.0608
     31 H           0.3947   -4.8068    2.9160 H       1  UNL1        0.2098
@<TRIPOS>BOND
     1     1    19    1
     2     2     1    1
     3     2    20    1
     4     2    21    1
     5     3     2    1
     6     4     3   ar
     7     4    22    1
     8     5     4   ar
     9     5    23    1
    10     6     5   ar
    11     6    24    1
    12     7     6   ar
    13     8     7   ar
    14     8    25    1
    15     9     8   ar
    16    10     9   ar
    17    10    26    1
    18    11    10   ar
    19    11    27    1
    20    12    11   ar
    21    12    28    1
    22    13    12   ar
    23    14    13    1
    24    14    29    1
    25    14    30    1
    26    15    14    1
    27    15    31    1
    28    16    13   ar
    29    16     9   ar
    30    17    16   ar
    31    18    17   ar
    32    18     3   ar
    33    18     7   ar
@<TRIPOS>MOLECULE
mol_641_akc_jbmc200504041
>621.sdf
 28 30 0 0 0
SMALL
GASTEIGER

@<TRIPOS>ATOM
      1 C           0.9521   -0.2622    0.0367 C.3     1  UNL1       -0.0012
      2 C           2.4167    0.0870    0.0027 C.2     1  UNL1        0.1651
      3 O           3.0346    0.0673   -1.0645 O.2     1  UNL1       -0.2922
      4 C           3.1342    0.5565    1.2205 C.ar    1  UNL1        0.0806
      5 C           4.1806    1.4924    1.0197 C.ar    1  UNL1        0.1329
      6 O           4.6043    1.9090   -0.2091 O.3     1  UNL1       -0.5057
      7 C           4.8212    2.0180    2.1169 C.ar    1  UNL1        0.0089
      8 C           4.4589    1.6388    3.4294 C.ar    1  UNL1        0.0096
      9 C           5.3248    2.4532    4.3697 C.3     1  UNL1        0.0069
     10 C           6.6037    2.4496    3.5024 C.3     1  UNL1       -0.0322
     11 C           5.9170    3.0590    2.2584 C.3     1  UNL1        0.0069
     12 C           5.3276    4.2838    2.9429 C.2     1  UNL1       -0.0798
     13 C           4.9745    3.9246    4.1946 C.2     1  UNL1       -0.0798
     14 C           3.4791    0.7076    3.6526 C.ar    1  UNL1        0.1400
     15 O           3.1875    0.3690    4.9403 O.3     1  UNL1       -0.5050
     16 C           2.8261    0.1392    2.5428 C.ar    1  UNL1        0.0965
     17 CL          1.7281   -1.1622    2.8998 Cl      1  UNL1       -0.0789
     18 H           0.4486    0.2555   -0.7859 H       1  UNL1        0.0309
     19 H           0.8373   -1.3422   -0.0891 H       1  UNL1        0.0309
     20 H           0.4567    0.0716    0.9485 H       1  UNL1        0.0309
     21 H           4.2106    1.3163   -0.8891 H       1  UNL1        0.2922
     22 H           5.4596    2.0844    5.3854 H       1  UNL1        0.0393
     23 H           7.4074    3.0786    3.9093 H       1  UNL1        0.0283
     24 H           7.0084    1.4427    3.3274 H       1  UNL1        0.0283
     25 H           6.5789    3.2227    1.4089 H       1  UNL1        0.0393
     26 H           5.1750    5.2450    2.4766 H       1  UNL1        0.0575
     27 H           4.4808    4.5403    4.9304 H       1  UNL1        0.0575
     28 H           2.4593   -0.2810    4.9173 H       1  UNL1        0.2922
@<TRIPOS>BOND
     1     1    18    1
     2     1    19    1
     3     1    20    1
     4     2     1    1
     5     3     2    2
     6     4     2    1
     7     5     4   ar
     8     6     5    1
     9     6    21    1
    10     7     5   ar
    11     8     7   ar
    12     9     8    1
    13     9    22    1
    14    10     9    1
    15    10    23    1
    16    10    24    1
    17    11    10    1
    18    11     7    1
    19    11    25    1
    20    12    11    1
    21    12    26    1
    22    13    12    2
    23    13     9    1
    24    13    27    1
    25    14     8   ar
    26    15    14    1
    27    15    28    1
    28    16    14   ar
    29    16     4   ar
    30    17    16    1
@<TRIPOS>MOLECULE
mol_642_akc_aac4951679_16872005
>622.sdf
 42 41 0 0 0
SMALL
GASTEIGER

@<TRIPOS>ATOM
      1 C           9.6928   -7.7842   -3.2270 C.3     1  UNL1       -0.0440
      2 C           9.4224   -6.5686   -2.3851 C.2     1  UNL1       -0.0796
      3 C           9.5754   -5.2451   -3.0801 C.3     1  UNL1       -0.0440
      4 C           9.0653   -6.6791   -1.0893 C.2     1  UNL1       -0.0850
      5 C           8.6582   -5.5385   -0.1926 C.3     1  UNL1       -0.0308
      6 C           9.8034   -5.0027    0.6806 C.3     1  UNL1       -0.0286
      7 C           9.4531   -3.8687    1.6379 C.2     1  UNL1       -0.0762
      8 C           8.0753   -3.2501    1.6088 C.3     1  UNL1       -0.0438
      9 C          10.3782   -3.4462    2.5290 C.2     1  UNL1       -0.0849
     10 C          10.1542   -2.3850    3.5784 C.3     1  UNL1       -0.0316
     11 C          11.2972   -1.3629    3.6962 C.3     1  UNL1       -0.0172
     12 C          10.9523   -0.2141    4.6764 C.3     1  UNL1        0.0814
     13 C          12.1715    0.6785    4.9267 C.3     1  UNL1       -0.0324
     14 O          10.5699   -0.7716    5.9356 O.3     1  UNL1       -0.3848
     15 C           9.8202    0.6378    4.1374 C.2     1  UNL1       -0.0602
     16 C           8.5952    0.7652    4.6688 C.2     1  UNL1       -0.1000
     17 H           9.0373   -7.7851   -4.1041 H       1  UNL1        0.0274
     18 H          10.7329   -7.7871   -3.5680 H       1  UNL1        0.0274
     19 H           9.5136   -8.7158   -2.6808 H       1  UNL1        0.0274
     20 H           8.6058   -4.7503   -3.1937 H       1  UNL1        0.0274
     21 H          10.2513   -4.5890   -2.5216 H       1  UNL1        0.0274
     22 H          10.0038   -5.3692   -4.0802 H       1  UNL1        0.0274
     23 H           8.9928   -7.6677   -0.6396 H       1  UNL1        0.0572
     24 H           8.2400   -4.7282   -0.7976 H       1  UNL1        0.0310
     25 H           7.8432   -5.9034    0.4441 H       1  UNL1        0.0310
     26 H          10.2076   -5.8370    1.2687 H       1  UNL1        0.0313
     27 H          10.6120   -4.6565    0.0242 H       1  UNL1        0.0313
     28 H           7.6277   -3.2647    2.6080 H       1  UNL1        0.0274
     29 H           8.1349   -2.2156    1.2558 H       1  UNL1        0.0274
     30 H           7.3669   -3.7671    0.9621 H       1  UNL1        0.0274
     31 H          11.3578   -3.9228    2.5383 H       1  UNL1        0.0572
     32 H           9.2222   -1.8496    3.3827 H       1  UNL1        0.0308
     33 H          10.0294   -2.8970    4.5406 H       1  UNL1        0.0308
     34 H          12.1888   -1.8927    4.0591 H       1  UNL1        0.0299
     35 H          11.5482   -0.9554    2.7090 H       1  UNL1        0.0299
     36 H          12.9831    0.1113    5.3970 H       1  UNL1        0.0260
     37 H          12.5506    1.1249    4.0017 H       1  UNL1        0.0260
     38 H          11.9237    1.4899    5.6240 H       1  UNL1        0.0260
     39 H          11.3112   -1.3121    6.2554 H       1  UNL1        0.2106
     40 H          10.0329    1.1827    3.2188 H       1  UNL1        0.0594
     41 H           8.3155    0.2370    5.5758 H       1  UNL1        0.0533
     42 H           7.8433    1.3903    4.1994 H       1  UNL1        0.0533
@<TRIPOS>BOND
     1     1    17    1
     2     1    18    1
     3     1    19    1
     4     2     1    1
     5     3     2    1
     6     3    20    1
     7     3    21    1
     8     3    22    1
     9     4     2    2
    10     4    23    1
    11     5     4    1
    12     5    24    1
    13     5    25    1
    14     6     5    1
    15     6    26    1
    16     6    27    1
    17     7     6    1
    18     8     7    1
    19     8    28    1
    20     8    29    1
    21     8    30    1
    22     9     7    2
    23     9    31    1
    24    10     9    1
    25    10    32    1
    26    10    33    1
    27    11    10    1
    28    11    34    1
    29    11    35    1
    30    13    36    1
    31    13    37    1
    32    13    38    1
    33    14    12    1
    34    14    39    1
    35    15    12    1
    36    15    40    1
    37    16    15    2
    38    16    41    1
    39    16    42    1
    40    12    13    1
    41    12    11    1
@<TRIPOS>MOLECULE
mol_643_akc_aac4931076_10802005
>623.sdf
 35 37 0 0 0
SMALL
GASTEIGER

@<TRIPOS>ATOM
      1 C           1.0953    0.4470   -0.0437 C.3     1  UNL1       -0.0216
      2 C           2.5713    0.1799   -0.0787 C.ar    1  UNL1        0.0495
      3 N           3.3340    1.3056   -0.0928 N.ar    1  UNL1       -0.2511
      4 C           4.6719    1.1987   -0.1300 C.ar    1  UNL1        0.0748
      5 C           5.4376    2.3576   -0.1477 C.ar    1  UNL1       -0.0356
      6 C           6.8326    2.3215   -0.2195 C.ar    1  UNL1       -0.0597
      7 C           7.4865    1.0978   -0.2670 C.ar    1  UNL1       -0.0610
      8 C           6.7406   -0.0787   -0.2296 C.ar    1  UNL1       -0.0490
      9 C           5.3286   -0.0436   -0.1591 C.ar    1  UNL1        0.0424
     10 C           4.5198   -1.1962   -0.1137 C.ar    1  UNL1        0.1348
     11 O           5.1592   -2.4183   -0.1123 O.3     1  UNL1       -0.5055
     12 C           3.1197   -1.1062   -0.0629 C.ar    1  UNL1        0.0381
     13 C           2.2901   -2.3187    0.0318 C.2     1  UNL1       -0.0488
     14 C           1.8544   -2.9869   -1.0470 C.2     1  UNL1       -0.0539
     15 C           1.0815   -4.2417   -0.9987 C.ar    1  UNL1       -0.0250
     16 C           0.2944   -4.6079    0.1013 C.ar    1  UNL1       -0.0546
     17 C          -0.4167   -5.8124    0.1051 C.ar    1  UNL1       -0.0612
     18 C          -0.3630   -6.6594   -0.9980 C.ar    1  UNL1       -0.0617
     19 C           0.3968   -6.3009   -2.1088 C.ar    1  UNL1       -0.0612
     20 C           1.1105   -5.0970   -2.1096 C.ar    1  UNL1       -0.0546
     21 H           0.8061    0.8002    0.9516 H       1  UNL1        0.0293
     22 H           0.8473    1.2249   -0.7739 H       1  UNL1        0.0293
     23 H           0.4894   -0.4287   -0.2917 H       1  UNL1        0.0293
     24 H           4.9307    3.3191   -0.1095 H       1  UNL1        0.0639
     25 H           7.3994    3.2482   -0.2423 H       1  UNL1        0.0618
     26 H           8.5702    1.0556   -0.3334 H       1  UNL1        0.0618
     27 H           7.2580   -1.0356   -0.2610 H       1  UNL1        0.0625
     28 H           4.4937   -3.1265   -0.1169 H       1  UNL1        0.2922
     29 H           2.0959   -2.6526    1.0478 H       1  UNL1        0.0625
     30 H           2.0968   -2.6188   -2.0454 H       1  UNL1        0.0624
     31 H           0.2115   -3.9622    0.9725 H       1  UNL1        0.0623
     32 H          -1.0154   -6.0854    0.9703 H       1  UNL1        0.0618
     33 H          -0.9164   -7.5956   -0.9946 H       1  UNL1        0.0618
     34 H           0.4363   -6.9552   -2.9750 H       1  UNL1        0.0618
     35 H           1.6975   -4.8427   -2.9903 H       1  UNL1        0.0623
@<TRIPOS>BOND
     1     1    21    1
     2     1    22    1
     3     1    23    1
     4     2     1    1
     5     3     2   ar
     6     4     3   ar
     7     5     4   ar
     8     5    24    1
     9     6     5   ar
    10     6    25    1
    11     7     6   ar
    12     7    26    1
    13     8     7   ar
    14     8    27    1
    15     9     8   ar
    16     9     4   ar
    17    10     9   ar
    18    11    10    1
    19    11    28    1
    20    12    10   ar
    21    12     2   ar
    22    13    12    1
    23    13    29    1
    24    14    13    2
    25    14    30    1
    26    15    14    1
    27    16    15   ar
    28    16    31    1
    29    17    16   ar
    30    17    32    1
    31    18    17   ar
    32    18    33    1
    33    19    18   ar
    34    19    34    1
    35    20    19   ar
    36    20    15   ar
    37    20    35    1
@<TRIPOS>MOLECULE
mol_644_akc_aac492808_8122005
>624.sdf
 15 15 0 0 0
SMALL
GASTEIGER

@<TRIPOS>ATOM
      1 N           1.1194    0.1206    0.3043 N.am    1  UNL1       -0.3253
      2 C           2.4441   -0.0925    0.0387 C.2     1  UNL1        0.2430
      3 O           3.0429   -1.0428    0.5229 O.2     1  UNL1       -0.2704
      4 C           3.1021    0.8439   -0.8952 C.ar    1  UNL1        0.0545
      5 C           2.6931    2.1693   -1.0566 C.ar    1  UNL1       -0.0467
      6 C           3.3621    2.9810   -1.9717 C.ar    1  UNL1       -0.0429
      7 C           4.4160    2.4366   -2.6897 C.ar    1  UNL1        0.0276
      8 N           4.8447    1.1638   -2.5452 N.ar    1  UNL1       -0.2625
      9 C           4.1842    0.3969   -1.6410 C.ar    1  UNL1        0.0396
     10 H           0.6532   -0.5955    0.8478 H       1  UNL1        0.1453
     11 H           0.5418    0.7179   -0.2697 H       1  UNL1        0.1453
     12 H           1.8834    2.5850   -0.4653 H       1  UNL1        0.0626
     13 H           3.0732    4.0163   -2.1174 H       1  UNL1        0.0633
     14 H           4.9635    3.0290   -3.4179 H       1  UNL1        0.0829
     15 H           4.5564   -0.6202   -1.5422 H       1  UNL1        0.0837
@<TRIPOS>BOND
     1     1    10    1
     2     1    11    1
     3     2     1   am
     4     3     2    2
     5     4     2    1
     6     5     4   ar
     7     5    12    1
     8     6     5   ar
     9     6    13    1
    10     7     6   ar
    11     7    14    1
    12     8     7   ar
    13     9     8   ar
    14     9     4   ar
    15     9    15    1
@<TRIPOS>MOLECULE
mol_645_akc_jijantimicag200408010
>625.sdf
 51 55 0 0 0
SMALL
GASTEIGER

@<TRIPOS>ATOM
      1 C           3.9605   -1.8585    0.9056 C.3     1  UNL1       -0.0544
      2 C           2.5978   -1.2970    0.4734 C.3     1  UNL1        0.0062
      3 C           2.7715   -0.3372   -0.7220 C.3     1  UNL1       -0.0425
      4 C           1.4353    0.2475   -1.2166 C.3     1  UNL1       -0.0517
      5 C           0.2608   -0.7438   -1.2523 C.3     1  UNL1       -0.0451
      6 C           0.1735   -1.7489   -0.0411 C.3     1  UNL1       -0.0027
      7 C          -0.1999   -0.9768    1.2436 C.3     1  UNL1        0.0455
      8 N           0.8716   -0.2904    1.9618 N.2     1  UNL1       -0.2947
      9 C           2.0924   -0.4672    1.6304 C.2     1  UNL1        0.0058
     10 C           1.5903   -2.3742    0.0329 C.3     1  UNL1       -0.0232
     11 C           1.6597   -3.7157    0.7505 C.3     1  UNL1       -0.0482
     12 C           0.7946   -4.7177   -0.0149 C.3     1  UNL1       -0.0441
     13 C          -0.6883   -4.3323    0.0056 C.3     1  UNL1        0.0040
     14 C          -1.2439   -4.6779    1.4247 C.3     1  UNL1       -0.0439
     15 C          -2.7556   -4.4644    1.5111 C.3     1  UNL1       -0.0458
     16 C          -3.2465   -3.7794    0.2343 C.3     1  UNL1       -0.0174
     17 C          -2.4223   -2.4868    0.0230 C.3     1  UNL1       -0.0424
     18 C          -0.9455   -2.8255   -0.3738 C.3     1  UNL1       -0.0246
     19 C          -2.9904   -4.7486   -0.9103 C.2     1  UNL1       -0.0449
     20 C          -3.9565   -5.1620   -1.7393 C.2     1  UNL1       -0.0967
     21 C          -1.5359   -5.1752   -1.0238 C.3     1  UNL1        0.0821
     22 O          -1.1424   -4.9562   -2.3756 O.3     1  UNL1       -0.3869
     23 H           4.4096   -2.4768    0.1250 H       1  UNL1        0.0239
     24 H           4.6677   -1.0480    1.1409 H       1  UNL1        0.0239
     25 H           3.8692   -2.4540    1.8198 H       1  UNL1        0.0239
     26 H           3.4507    0.4913   -0.4724 H       1  UNL1        0.0274
     27 H           3.2470   -0.8780   -1.5517 H       1  UNL1        0.0274
     28 H           1.1652    1.1018   -0.5850 H       1  UNL1        0.0266
     29 H           1.5881    0.6542   -2.2241 H       1  UNL1        0.0266
     30 H          -0.6751   -0.1876   -1.3593 H       1  UNL1        0.0271
     31 H           0.3703   -1.3215   -2.1789 H       1  UNL1        0.0271
     32 H          -0.6584   -1.6458    1.9755 H       1  UNL1        0.0514
     33 H          -0.9506   -0.2133    0.9977 H       1  UNL1        0.0514
     34 H           2.8540    0.0950    2.2068 H       1  UNL1        0.0784
     35 H           1.8749   -2.6384   -1.0013 H       1  UNL1        0.0315
     36 H           2.6819   -4.1073    0.7262 H       1  UNL1        0.0269
     37 H           1.3751   -3.6306    1.8033 H       1  UNL1        0.0269
     38 H           0.9357   -5.7179    0.4139 H       1  UNL1        0.0272
     39 H           1.1714   -4.7845   -1.0415 H       1  UNL1        0.0272
     40 H          -0.7499   -4.0863    2.2013 H       1  UNL1        0.0272
     41 H          -1.0303   -5.7302    1.6610 H       1  UNL1        0.0272
     42 H          -2.9916   -3.8601    2.3951 H       1  UNL1        0.0271
     43 H          -3.2616   -5.4295    1.6556 H       1  UNL1        0.0271
     44 H          -4.3095   -3.5408    0.3333 H       1  UNL1        0.0346
     45 H          -2.4886   -1.9143    0.9526 H       1  UNL1        0.0274
     46 H          -2.8782   -1.8639   -0.7537 H       1  UNL1        0.0274
     47 H          -0.9697   -2.8127   -1.4714 H       1  UNL1        0.0313
     48 H          -4.9884   -4.8273   -1.6363 H       1  UNL1        0.0535
     49 H          -3.7329   -5.8373   -2.5677 H       1  UNL1        0.0535
     50 H          -1.4385   -6.2456   -0.8103 H       1  UNL1        0.0646
     51 H          -0.1880   -5.0981   -2.4515 H       1  UNL1        0.2102
@<TRIPOS>BOND
     1     1    23    1
     2     1    24    1
     3     1    25    1
     4     3     2    1
     5     4     3    1
     6     5     4    1
     7     6     5    1
     8     7     6    1
     9     8     7    1
    10     9     8    2
    11     9     2    1
    12    10     6    1
    13    10     2    1
    14    11    10    1
    15    12    11    1
    16    13    12    1
    17    14    13    1
    18    15    14    1
    19    16    15    1
    20    17    16    1
    21    18    17    1
    22    18     6    1
    23    18    13    1
    24    19    16    1
    25    20    48    1
    26    20    49    1
    27    21    19    1
    28    21    13    1
    29    22    51    1
    30     2     1    1
    31     3    26    1
    32     3    27    1
    33     4    28    1
    34     4    29    1
    35     5    30    1
    36     5    31    1
    37     7    32    1
    38     7    33    1
    39     9    34    1
    40    10    35    1
    41    11    36    1
    42    11    37    1
    43    12    38    1
    44    12    39    1
    45    14    40    1
    46    14    41    1
    47    15    42    1
    48    15    43    1
    49    16    44    1
    50    17    45    1
    51    17    46    1
    52    18    47    1
    53    20    19    2
    54    21    50    1
    55    22    21    1
@<TRIPOS>MOLECULE
mol_646_akc_jbioorg200507001
>626.sdf
 42 44 0 0 0
SMALL
GASTEIGER

@<TRIPOS>ATOM
      1 C          -9.1019    7.9261    2.0019 C.3     1  UNL1       -0.0319
      2 C          -8.9590    6.4849    2.3277 C.ar    1  UNL1        0.0068
      3 C          -9.2986    5.3830    1.5774 C.ar    1  UNL1        0.0383
      4 N          -9.0299    4.1615    2.1571 N.ar    1  UNL1       -0.2468
      5 C          -8.5235    4.3118    3.3724 C.ar    1  UNL1        0.1150
      6 S          -8.2828    5.9741    3.8129 S.2     1  UNL1       -0.0723
      7 C          -8.1085    3.2426    4.2211 C.ar    1  UNL1        0.0876
      8 C          -7.6190    2.1230    3.6646 C.ar    1  UNL1        0.0242
      9 N          -7.1894    1.0329    4.4012 N.ar    1  UNL1       -0.2996
     10 C          -6.6577   -0.1454    3.7021 C.3     1  UNL1        0.0304
     11 C          -5.3711    0.1336    2.9011 C.3     1  UNL1       -0.0201
     12 C          -4.2177    0.6530    3.7731 C.3     1  UNL1       -0.0221
     13 C          -3.3333   -0.5638    4.0035 C.3     1  UNL1        0.0605
     14 O          -2.0265   -0.2007    4.4036 O.3     1  UNL1       -0.3914
     15 C          -3.3532   -1.2394    2.6390 C.3     1  UNL1        0.0085
     16 C          -2.7977   -2.6562    2.6661 C.3     1  UNL1        0.0494
     17 O          -2.8178   -3.1885    1.3467 O.3     1  UNL1       -0.3946
     18 C          -4.8310   -1.1540    2.2353 C.3     1  UNL1       -0.0412
     19 C          -7.2789    1.0155    5.7885 C.ar    1  UNL1        0.3294
     20 O          -6.9501    0.0672    6.4966 O.2     1  UNL1       -0.2465
     21 N          -7.7741    2.1572    6.3587 N.ar    1  UNL1       -0.2744
     22 C          -8.2420    3.2658    5.7006 C.ar    1  UNL1        0.2637
     23 O          -8.7557    4.1885    6.3242 O.2     1  UNL1       -0.2670
     24 H          -9.6911    8.4445    2.7652 H       1  UNL1        0.0283
     25 H          -8.1210    8.4072    1.9301 H       1  UNL1        0.0283
     26 H          -9.6106    8.0593    1.0410 H       1  UNL1        0.0283
     27 H          -9.7428    5.4103    0.5895 H       1  UNL1        0.0838
     28 H          -7.5326    2.0353    2.5833 H       1  UNL1        0.0819
     29 H          -6.4681   -0.9481    4.4247 H       1  UNL1        0.0496
     30 H          -7.4457   -0.5115    3.0318 H       1  UNL1        0.0496
     31 H          -5.5861    0.8745    2.1217 H       1  UNL1        0.0319
     32 H          -4.5282    1.1125    4.7149 H       1  UNL1        0.0293
     33 H          -3.6629    1.4258    3.2239 H       1  UNL1        0.0293
     34 H          -3.7656   -1.2120    4.7750 H       1  UNL1        0.0597
     35 H          -1.7084    0.5058    3.8154 H       1  UNL1        0.2098
     36 H          -2.7593   -0.6551    1.9216 H       1  UNL1        0.0348
     37 H          -1.7624   -2.6581    3.0227 H       1  UNL1        0.0561
     38 H          -3.3916   -3.3100    3.3131 H       1  UNL1        0.0561
     39 H          -2.3381   -4.0348    1.3767 H       1  UNL1        0.2094
     40 H          -5.3834   -2.0385    2.5746 H       1  UNL1        0.0273
     41 H          -4.9356   -1.1068    1.1457 H       1  UNL1        0.0273
     42 H          -7.8775    2.1488    7.3608 H       1  UNL1        0.1734
@<TRIPOS>BOND
     1     1    24    1
     2     1    25    1
     3     1    26    1
     4     2     1    1
     5     3     2   ar
     6     3    27    1
     7     4     3   ar
     8     5     4   ar
     9     6     5   ar
    10     6     2   ar
    11     7     5    1
    12     8     7   ar
    13     8    28    1
    14     9     8   ar
    15    10     9    1
    16    10    29    1
    17    10    30    1
    18    12    11    1
    19    12    32    1
    20    12    33    1
    21    13    12    1
    22    14    35    1
    23    15    13    1
    24    15    36    1
    25    16    15    1
    26    16    37    1
    27    16    38    1
    28    17    16    1
    29    17    39    1
    30    18    15    1
    31    18    11    1
    32    18    40    1
    33    18    41    1
    34    19     9   ar
    35    20    19    2
    36    21    19   ar
    37    21    42    1
    38    22    21   ar
    39    22     7   ar
    40    23    22    2
    41    11    31    1
    42    11    10    1
    43    13    14    1
    44    13    34    1
@<TRIPOS>MOLECULE
mol_647_akc_aac4911176_1822005
>627.sdf
 38 40 0 0 0
SMALL
GASTEIGER

@<TRIPOS>ATOM
      1 C           1.6984    7.4755    2.7997 C.3     1  UNL1       -0.0438
      2 C           1.1957    6.7361    1.5777 C.2     1  UNL1       -0.0765
      3 C           2.0487    6.5965    0.5438 C.2     1  UNL1       -0.0849
      4 C           1.8574    5.9492   -0.7897 C.3     1  UNL1       -0.0318
      5 C           1.2792    6.8656   -1.8750 C.3     1  UNL1       -0.0180
      6 C           1.2713    8.3362   -1.5377 C.3     1  UNL1        0.0971
      7 C           0.2077    9.0877   -0.7167 C.3     1  UNL1        0.1254
      8 O           0.1563    9.0175   -2.1450 O.3     1  UNL1       -0.3612
      9 C          -1.0136    8.6207    0.0139 C.3     1  UNL1        0.1390
     10 C          -1.6342    7.2682   -0.3115 C.3     1  UNL1        0.0303
     11 C          -1.1346    6.0346    0.4827 C.3     1  UNL1       -0.0388
     12 C          -0.2320    6.2425    1.7065 C.3     1  UNL1       -0.0313
     13 C          -3.0909    7.5836   -0.1291 C.2     1  UNL1        0.0362
     14 C          -4.1476    6.7738    0.0333 C.2     1  UNL1       -0.0883
     15 C          -3.2690    9.0470   -0.1956 C.2     1  UNL1        0.3353
     16 O          -4.3268    9.6490   -0.2255 O.2     1  UNL1       -0.2453
     17 O          -2.0385    9.6087   -0.2325 O.3     1  UNL1       -0.4548
     18 C           2.5859    9.0570   -1.6981 C.3     1  UNL1       -0.0332
     19 H           1.3081    7.0272    3.7173 H       1  UNL1        0.0274
     20 H           2.7918    7.4566    2.8729 H       1  UNL1        0.0274
     21 H           1.3765    8.5212    2.7557 H       1  UNL1        0.0274
     22 H           3.0457    7.0292    0.6537 H       1  UNL1        0.0572
     23 H           1.2755    5.0254   -0.7129 H       1  UNL1        0.0308
     24 H           2.8432    5.5988   -1.1260 H       1  UNL1        0.0308
     25 H           1.8713    6.7270   -2.7898 H       1  UNL1        0.0297
     26 H           0.2847    6.5136   -2.1589 H       1  UNL1        0.0297
     27 H           0.5104   10.0436   -0.2982 H       1  UNL1        0.0662
     28 H          -0.8025    8.7120    1.0846 H       1  UNL1        0.0767
     29 H          -1.5369    7.0547   -1.3821 H       1  UNL1        0.0388
     30 H          -1.9982    5.4711    0.8587 H       1  UNL1        0.0275
     31 H          -0.6764    5.3291   -0.2138 H       1  UNL1        0.0275
     32 H          -0.7717    6.9068    2.3954 H       1  UNL1        0.0310
     33 H          -0.1703    5.2809    2.2360 H       1  UNL1        0.0310
     34 H          -5.1520    7.1809    0.1321 H       1  UNL1        0.0540
     35 H          -4.0565    5.6942    0.0481 H       1  UNL1        0.0540
     36 H           3.4214    8.3569   -1.8030 H       1  UNL1        0.0258
     37 H           2.7963    9.6753   -0.8187 H       1  UNL1        0.0258
     38 H           2.5755    9.7078   -2.5787 H       1  UNL1        0.0258
@<TRIPOS>BOND
     1     1    19    1
     2     1    20    1
     3     1    21    1
     4     2     1    1
     5     3     2    2
     6     3    22    1
     7     4     3    1
     8     4    23    1
     9     4    24    1
    10     5     4    1
    11     5    25    1
    12     5    26    1
    13     6     5    1
    14     6    18    1
    15     7     6    1
    16     7    27    1
    17     8     7    1
    18     8     6    1
    19     9     7    1
    20     9    28    1
    21    10     9    1
    22    10    29    1
    23    11    10    1
    24    11    30    1
    25    11    31    1
    26    12    11    1
    27    12     2    1
    28    12    32    1
    29    12    33    1
    30    13    10    1
    31    14    13    2
    32    14    34    1
    33    14    35    1
    34    15    13    1
    35    16    15    2
    36    17    15    1
    37    17     9    1
    38    18    36    1
    39    18    37    1
    40    18    38    1
@<TRIPOS>MOLECULE
mol_648_akc_jbmc200403054
>628.sdf
 22 23 0 0 0
SMALL
GASTEIGER

@<TRIPOS>ATOM
      1 CL         -2.0343    0.0785   -0.5376 Cl      1  UNL1       -0.0835
      2 C          -0.3251    0.0508   -0.3475 C.ar    1  UNL1        0.0410
      3 C           0.4522   -0.7458   -1.1854 C.ar    1  UNL1       -0.0427
      4 C           1.8436   -0.7563   -1.0415 C.ar    1  UNL1       -0.0496
      5 C           2.4664    0.0288   -0.0584 C.ar    1  UNL1        0.0225
      6 C           1.6653    0.8147    0.7854 C.ar    1  UNL1       -0.0496
      7 C           0.2745    0.8283    0.6400 C.ar    1  UNL1       -0.0427
      8 C           3.9181    0.0411    0.0893 C.ar    1  UNL1        0.2021
      9 N           4.7642   -0.6202   -0.7185 N.ar    1  UNL1       -0.0561
     10 O           6.0221   -0.3225   -0.2016 O.2     1  UNL1       -0.3368
     11 C           5.8166    0.4912    0.8725 C.ar    1  UNL1        0.2385
     12 C           7.0140    0.9143    1.6324 C.3     1  UNL1        0.0867
     13 S           7.6932    2.4610    0.9714 S.3     1  UNL1       -0.0370
     14 C           8.9711    2.6146    2.0645 C.1     1  UNL1        0.1334
     15 N           9.8396    2.6901    2.8272 N.1     1  UNL1       -0.1838
     16 N           4.5474    0.7454    1.0952 N.ar    1  UNL1       -0.1906
     17 H          -0.0140   -1.3566   -1.9540 H       1  UNL1        0.0632
     18 H           2.4357   -1.3820   -1.7075 H       1  UNL1        0.0625
     19 H           2.1204    1.4291    1.5606 H       1  UNL1        0.0625
     20 H          -0.3295    1.4498    1.2961 H       1  UNL1        0.0632
     21 H           6.7359    1.0588    2.6823 H       1  UNL1        0.0483
     22 H           7.7766    0.1289    1.5934 H       1  UNL1        0.0483
@<TRIPOS>BOND
     1     2     1    1
     2     3     2   ar
     3     3    17    1
     4     4     3   ar
     5     4    18    1
     6     5     4   ar
     7     6     5   ar
     8     6    19    1
     9     7     6   ar
    10     7     2   ar
    11     7    20    1
    12     8     5    1
    13     9     8   ar
    14    10     9   ar
    15    11    10   ar
    16    12    11    1
    17    12    21    1
    18    12    22    1
    19    13    12    1
    20    14    13    1
    21    15    14    3
    22    16    11   ar
    23    16     8   ar
@<TRIPOS>MOLECULE
mol_649_akc
>629.sdf
 30 32 0 0 0
SMALL
GASTEIGER

@<TRIPOS>ATOM
      1 C           0.9642    0.0407    0.0260 C.3     1  UNL1       -0.0208
      2 C           2.4671    0.1110    0.0171 C.2     1  UNL1        0.0563
      3 N           3.0399    1.2639    0.0215 N.2     1  UNL1       -0.2861
      4 C           4.5117    1.4037   -0.0221 C.3     1  UNL1        0.0441
      5 C           5.3853    0.1366    0.0617 C.3     1  UNL1       -0.0055
      6 C           4.6061   -1.1196    0.0192 C.ar    1  UNL1       -0.0115
      7 C           3.2320   -1.1031    0.0041 C.ar    1  UNL1        0.0644
      8 N           2.8014   -2.4028   -0.0098 N.ar    1  UNL1       -0.3529
      9 C           3.8843   -3.2601   -0.0004 C.ar    1  UNL1        0.0507
     10 C           5.0351   -2.4716    0.0127 C.ar    1  UNL1        0.0038
     11 C           6.2905   -3.1050    0.0253 C.ar    1  UNL1       -0.0489
     12 C           6.3470   -4.5039    0.0261 C.ar    1  UNL1       -0.0193
     13 C           5.1852   -5.2774    0.0160 C.ar    1  UNL1        0.1221
     14 C           3.9267   -4.6638    0.0024 C.ar    1  UNL1        0.0040
     15 O           5.4097   -6.6294    0.0225 O.3     1  UNL1       -0.4950
     16 C           4.2633   -7.4704    0.0168 C.3     1  UNL1        0.0788
     17 H           0.6142   -0.4856   -0.8669 H       1  UNL1        0.0293
     18 H           0.6225   -0.4938    0.9166 H       1  UNL1        0.0293
     19 H           0.5344    1.0470    0.0311 H       1  UNL1        0.0293
     20 H           4.7616    1.9390   -0.9463 H       1  UNL1        0.0511
     21 H           4.8039    2.0764    0.7937 H       1  UNL1        0.0511
     22 H           5.9699    0.1647    0.9897 H       1  UNL1        0.0332
     23 H           6.1123    0.1485   -0.7597 H       1  UNL1        0.0332
     24 H           1.8375   -2.7033   -0.0183 H       1  UNL1        0.1659
     25 H           7.2060   -2.5219    0.0358 H       1  UNL1        0.0625
     26 H           7.3179   -4.9951    0.0360 H       1  UNL1        0.0654
     27 H           3.0046   -5.2297   -0.0039 H       1  UNL1        0.0675
     28 H           3.6570   -7.3162    0.9155 H       1  UNL1        0.0660
     29 H           3.6705   -7.3220   -0.8917 H       1  UNL1        0.0660
     30 H           4.6092   -8.5082    0.0228 H       1  UNL1        0.0660
@<TRIPOS>BOND
     1     1    17    1
     2     1    18    1
     3     1    19    1
     4     2     1    1
     5     3     2    2
     6     4     3    1
     7     4    20    1
     8     4    21    1
     9     5     4    1
    10     5    22    1
    11     5    23    1
    12     6     5    1
    13     7     6   ar
    14     7     2    1
    15     8     7   ar
    16     8    24    1
    17     9     8   ar
    18    10     9   ar
    19    10     6   ar
    20    11    10   ar
    21    11    25    1
    22    12    11   ar
    23    12    26    1
    24    13    12   ar
    25    14    13   ar
    26    14     9   ar
    27    14    27    1
    28    15    13    1
    29    16    15    1
    30    16    28    1
    31    16    29    1
    32    16    30    1
@<TRIPOS>MOLECULE
mol_64_akc_1040663820222092877
>63.sdf
 55 56 0 0 0
SMALL
GASTEIGER

@<TRIPOS>ATOM
      1 C           2.5453   -0.6728   -1.1322 C.3     1  UNL1       -0.0306
      2 C           4.0477   -0.5270   -0.9901 C.3     1  UNL1        0.0900
      3 O           4.4243    0.8257   -1.2933 O.3     1  UNL1       -0.4616
      4 C           4.5571    1.6389   -0.2172 C.2     1  UNL1        0.3375
      5 O           4.3374    1.3312    0.9446 O.2     1  UNL1       -0.2452
      6 C           4.9896    2.9882   -0.6437 C.2     1  UNL1        0.0652
      7 C           4.3794    4.0850   -0.1329 C.2     1  UNL1        0.0157
      8 C           3.1903    4.0881    0.7969 C.3     1  UNL1       -0.0260
      9 N           4.8566    5.3454   -0.4627 N.pl3   1  UNL1       -0.3207
     10 C           6.0895    5.5752   -1.0563 C.2     1  UNL1        0.0157
     11 C           6.5598    7.0080   -0.9731 C.3     1  UNL1       -0.0260
     12 C           6.7644    4.5441   -1.6214 C.2     1  UNL1        0.0652
     13 C           6.1529    3.1302   -1.6292 C.3     1  UNL1        0.0507
     14 C           7.2082    2.0324   -1.4803 C.ar    1  UNL1       -0.0314
     15 C           7.3421    1.0601   -2.4838 C.ar    1  UNL1       -0.0540
     16 C           8.3744    0.1206   -2.4364 C.ar    1  UNL1       -0.0160
     17 C           9.3146    0.1493   -1.4026 C.ar    1  UNL1        0.1615
     18 O          10.3697   -0.7193   -1.3094 O.3     1  UNL1       -0.4915
     19 C          10.6263   -1.5611   -2.4265 C.3     1  UNL1        0.0790
     20 C           9.1692    1.1078   -0.3839 C.ar    1  UNL1        0.1618
     21 O           9.9983    1.2433    0.7009 O.3     1  UNL1       -0.4914
     22 C          11.3855    1.2635    0.3772 C.3     1  UNL1        0.0790
     23 C           8.1009    2.0110   -0.4033 C.ar    1  UNL1       -0.0122
     24 C           8.1532    4.7499   -2.1075 C.2     1  UNL1        0.3375
     25 O           8.9626    5.4678   -1.5351 O.2     1  UNL1       -0.2452
     26 O           8.4185    4.0199   -3.2196 O.3     1  UNL1       -0.4616
     27 C           9.7976    4.0901   -3.6226 C.3     1  UNL1        0.0900
     28 C          10.1243    2.9439   -4.5617 C.3     1  UNL1       -0.0306
     29 H           2.2300   -1.6971   -0.9152 H       1  UNL1        0.0262
     30 H           2.0212    0.0092   -0.4551 H       1  UNL1        0.0262
     31 H           2.2328   -0.4155   -2.1493 H       1  UNL1        0.0262
     32 H           4.3813   -0.8358    0.0079 H       1  UNL1        0.0695
     33 H           4.5567   -1.1776   -1.7091 H       1  UNL1        0.0695
     34 H           3.4874    4.4653    1.7808 H       1  UNL1        0.0290
     35 H           2.4123    4.7507    0.4003 H       1  UNL1        0.0290
     36 H           2.7223    3.1111    0.9313 H       1  UNL1        0.0290
     37 H           4.4643    6.1216    0.0673 H       1  UNL1        0.1516
     38 H           5.7498    7.6841   -1.2698 H       1  UNL1        0.0290
     39 H           6.8383    7.2475    0.0593 H       1  UNL1        0.0290
     40 H           7.4036    7.2421   -1.6244 H       1  UNL1        0.0290
     41 H           5.7102    3.0188   -2.6297 H       1  UNL1        0.0451
     42 H           6.6511    1.0393   -3.3262 H       1  UNL1        0.0622
     43 H           8.4239   -0.6086   -3.2380 H       1  UNL1        0.0655
     44 H           9.8474   -2.3242   -2.5221 H       1  UNL1        0.0660
     45 H          10.7325   -0.9845   -3.3520 H       1  UNL1        0.0660
     46 H          11.5766   -2.0727   -2.2479 H       1  UNL1        0.0660
     47 H          11.8090    0.2597    0.4813 H       1  UNL1        0.0660
     48 H          11.5863    1.6711   -0.6213 H       1  UNL1        0.0660
     49 H          11.8868    1.9101    1.1031 H       1  UNL1        0.0660
     50 H           8.0123    2.7399    0.4004 H       1  UNL1        0.0658
     51 H           9.9596    5.0436   -4.1346 H       1  UNL1        0.0695
     52 H          10.4655    4.0265   -2.7532 H       1  UNL1        0.0695
     53 H          10.0784    1.9881   -4.0319 H       1  UNL1        0.0262
     54 H           9.4096    2.8934   -5.3874 H       1  UNL1        0.0262
     55 H          11.1344    3.0573   -4.9675 H       1  UNL1        0.0262
@<TRIPOS>BOND
     1     1    29    1
     2     1    30    1
     3     1    31    1
     4     2     1    1
     5     2    32    1
     6     2    33    1
     7     3     2    1
     8     4     3    1
     9     5     4    2
    10     6     4    1
    11     7     6    2
    12     8     7    1
    13     8    34    1
    14     8    35    1
    15     8    36    1
    16     9     7    1
    17     9    37    1
    18    10     9    1
    19    11    10    1
    20    11    38    1
    21    11    39    1
    22    11    40    1
    23    12    10    2
    24    13    12    1
    25    13     6    1
    26    15    14   ar
    27    15    42    1
    28    16    15   ar
    29    16    43    1
    30    17    16   ar
    31    18    17    1
    32    19    18    1
    33    19    44    1
    34    19    45    1
    35    19    46    1
    36    20    17   ar
    37    21    20    1
    38    22    21    1
    39    22    47    1
    40    22    48    1
    41    22    49    1
    42    23    20   ar
    43    23    14   ar
    44    23    50    1
    45    24    12    1
    46    25    24    2
    47    26    24    1
    48    27    26    1
    49    27    51    1
    50    27    52    1
    51    28    27    1
    52    28    53    1
    53    28    54    1
    54    28    55    1
    55    13    14    1
    56    13    41    1
@<TRIPOS>MOLECULE
mol_651_akc_s_2004_815460
>631.sdf
 69 74 0 0 0
SMALL
GASTEIGER

@<TRIPOS>ATOM
      1 C          13.5147   -5.7862   -3.8902 C.3     1  UNL1       -0.0359
      2 C          13.2829   -5.7417   -2.3787 C.3     1  UNL1        0.0867
      3 C          11.8176   -6.0091   -1.9505 C.3     1  UNL1        0.1100
      4 C          10.9561   -4.8487   -2.3297 C.2     1  UNL1        0.0399
      5 C          11.4966   -3.6278   -2.4678 C.2     1  UNL1        0.0376
      6 C          12.9659   -3.3371   -2.2242 C.3     1  UNL1        0.0853
      7 O          13.7244   -4.4973   -1.8207 O.3     1  UNL1       -0.3663
      8 C          13.2071   -2.2771   -1.1437 C.3     1  UNL1       -0.0344
      9 C          10.6902   -2.5278   -3.0419 C.2     1  UNL1        0.1963
     10 O          11.2637   -1.5547   -3.5133 O.2     1  UNL1       -0.2867
     11 C           9.2128   -2.6713   -3.0123 C.ar    1  UNL1        0.0750
     12 C           8.3895   -1.5460   -3.1670 C.ar    1  UNL1        0.1318
     13 C           7.0136   -1.6689   -3.0720 C.ar    1  UNL1        0.0227
     14 C           6.4522   -2.9018   -2.7638 C.ar    1  UNL1        0.1287
     15 C           7.2329   -4.0674   -2.5746 C.ar    1  UNL1        0.0362
     16 C           8.6332   -3.9347   -2.7638 C.ar    1  UNL1        0.0475
     17 C           9.5394   -5.1050   -2.6753 C.2     1  UNL1        0.1937
     18 O           9.1347   -6.2381   -2.9112 O.2     1  UNL1       -0.2868
     19 C           6.5558   -5.2645   -1.9797 C.ar    1  UNL1        0.0005
     20 C           5.6290   -5.9979   -2.7528 C.ar    1  UNL1        0.0008
     21 C           5.8517   -6.2857   -4.2212 C.3     1  UNL1        0.1070
     22 C           5.3351   -7.7259   -4.4980 C.3     1  UNL1        0.0866
     23 O           3.9214   -7.8343   -4.2512 O.3     1  UNL1       -0.3663
     24 C           3.4335   -7.1537   -3.0787 C.3     1  UNL1        0.0850
     25 C           4.5258   -6.6411   -2.1511 C.ar    1  UNL1        0.0293
     26 C           4.5217   -6.7750   -0.7584 C.ar    1  UNL1        0.1340
     27 C           5.5590   -6.2284    0.0589 C.ar    1  UNL1        0.0661
     28 C           6.5830   -5.4704   -0.5690 C.ar    1  UNL1        0.0008
     29 C           7.6219   -4.9523    0.2470 C.ar    1  UNL1       -0.0115
     30 C           7.6440   -5.1355    1.6229 C.ar    1  UNL1        0.1209
     31 C           6.6258   -5.8195    2.2484 C.ar    1  UNL1        0.0220
     32 C           5.6164   -6.3799    1.4718 C.ar    1  UNL1        0.1315
     33 O           4.6890   -7.1152    2.1699 O.3     1  UNL1       -0.5059
     34 O           8.6756   -4.6622    2.3789 O.3     1  UNL1       -0.5066
     35 O           3.5349   -7.4996   -0.1213 O.3     1  UNL1       -0.5057
     36 C           2.4948   -6.0240   -3.5338 C.3     1  UNL1       -0.0344
     37 C           6.0878   -8.8121   -3.7140 C.3     1  UNL1       -0.0359
     38 O           5.1768   -5.3176   -5.0117 O.3     1  UNL1       -0.3846
     39 O           5.0912   -2.8594   -2.5920 O.3     1  UNL1       -0.5060
     40 O           8.9146   -0.3035   -3.3721 O.3     1  UNL1       -0.5059
     41 O          11.7152   -6.1310   -0.5309 O.3     1  UNL1       -0.3845
     42 H          14.5681   -5.5846   -4.1139 H       1  UNL1        0.0255
     43 H          13.2499   -6.7648   -4.2979 H       1  UNL1        0.0255
     44 H          12.9377   -5.0272   -4.4288 H       1  UNL1        0.0255
     45 H          13.9225   -6.5064   -1.9223 H       1  UNL1        0.0623
     46 H          11.4795   -6.9503   -2.3967 H       1  UNL1        0.0671
     47 H          13.4136   -2.9862   -3.1626 H       1  UNL1        0.0645
     48 H          12.2968   -1.7486   -0.8445 H       1  UNL1        0.0258
     49 H          13.6671   -2.7034   -0.2443 H       1  UNL1        0.0258
     50 H          13.9044   -1.5194   -1.5219 H       1  UNL1        0.0258
     51 H           6.3576   -0.8062   -3.1770 H       1  UNL1        0.0691
     52 H           6.9191   -6.2446   -4.4710 H       1  UNL1        0.0670
     53 H           5.4613   -7.9376   -5.5636 H       1  UNL1        0.0623
     54 H           2.8015   -7.8891   -2.5742 H       1  UNL1        0.0645
     55 H           8.4585   -4.4252   -0.1925 H       1  UNL1        0.0660
     56 H           6.6249   -5.9415    3.3259 H       1  UNL1        0.0691
     57 H           4.0748   -7.4845    1.5045 H       1  UNL1        0.2922
     58 H           9.4212   -4.4569    1.7977 H       1  UNL1        0.2921
     59 H           3.1994   -8.1874   -0.7231 H       1  UNL1        0.2922
     60 H           1.9177   -5.6192   -2.6957 H       1  UNL1        0.0258
     61 H           3.0297   -5.1840   -3.9838 H       1  UNL1        0.0258
     62 H           1.7975   -6.3858   -4.2981 H       1  UNL1        0.0258
     63 H           5.7149   -8.9366   -2.6909 H       1  UNL1        0.0255
     64 H           5.9470   -9.7862   -4.1932 H       1  UNL1        0.0255
     65 H           7.1609   -8.6032   -3.6707 H       1  UNL1        0.0255
     66 H           4.8690   -5.7565   -5.8158 H       1  UNL1        0.2103
     67 H           4.7360   -3.7594   -2.5443 H       1  UNL1        0.2922
     68 H           8.2054    0.3466   -3.5059 H       1  UNL1        0.2922
     69 H          12.5226   -6.5751   -0.2092 H       1  UNL1        0.2103
@<TRIPOS>BOND
     1     1    42    1
     2     1    43    1
     3     1    44    1
     4     3     2    1
     5     3    46    1
     6     4     3    1
     7     5     4    2
     8     6     5    1
     9     7     6    1
    10     7     2    1
    11     8    48    1
    12     8    49    1
    13     8    50    1
    14     9     5    1
    15    10     9    2
    16    11     9    1
    17    12    11   ar
    18    13    12   ar
    19    13    51    1
    20    14    13   ar
    21    15    14   ar
    22    16    15   ar
    23    16    11   ar
    24    17    16    1
    25    17     4    1
    26    18    17    2
    27    19    15    1
    28    20    19   ar
    29    21    20    1
    30    21    52    1
    31    22    21    1
    32    23    22    1
    33    24    23    1
    34    24    54    1
    35    25    24    1
    36    25    20   ar
    37    26    25   ar
    38    27    26   ar
    39    28    27   ar
    40    28    19   ar
    41    29    28   ar
    42    29    55    1
    43    30    29   ar
    44    31    30   ar
    45    31    56    1
    46    32    31   ar
    47    32    27   ar
    48    33    32    1
    49    33    57    1
    50    34    30    1
    51    34    58    1
    52    35    26    1
    53    35    59    1
    54    36    24    1
    55    36    60    1
    56    36    61    1
    57    36    62    1
    58    37    63    1
    59    37    64    1
    60    37    65    1
    61    38    21    1
    62    38    66    1
    63    39    14    1
    64    39    67    1
    65    40    12    1
    66    40    68    1
    67    41     3    1
    68    41    69    1
    69     2    45    1
    70     2     1    1
    71     6     8    1
    72     6    47    1
    73    22    37    1
    74    22    53    1
@<TRIPOS>MOLECULE
mol_652_akc_s0001_706x0200258_9
>633.sdf
 56 56 0 0 0
SMALL
GASTEIGER

@<TRIPOS>ATOM
      1 C           4.0281   -0.9143    0.2983 C.3     1  UNL1       -0.0610
      2 C           3.6086    0.4739    0.7519 C.3     1  UNL1       -0.0237
      3 C           3.6562    1.4696   -0.3753 C.2     1  UNL1        0.0369
      4 C           4.7467    2.1945   -0.6824 C.2     1  UNL1        0.1080
      5 C           4.7417    3.2588   -1.7423 C.3     1  UNL1        0.0271
      6 C           3.3716    3.6152   -2.2529 C.2     1  UNL1       -0.0558
      7 C           3.3271    4.8806   -3.0694 C.3     1  UNL1       -0.0307
      8 C           3.0444    6.1079   -2.1939 C.3     1  UNL1       -0.0493
      9 C           2.9404    7.3909   -3.0149 C.3     1  UNL1       -0.0528
     10 C           1.8001    7.3229   -4.0287 C.3     1  UNL1       -0.0530
     11 C           1.6985    8.6014   -4.8402 C.3     1  UNL1       -0.0530
     12 C           0.5768    8.4879   -5.8695 C.3     1  UNL1       -0.0526
     13 C           0.5010    9.7718   -6.6807 C.3     1  UNL1       -0.0430
     14 C          -0.6070    9.7270   -7.7237 C.3     1  UNL1        0.0449
     15 C          -0.6397   11.0225   -8.4995 C.2     1  UNL1        0.3068
     16 O           0.1056   11.9704   -8.3191 O.2     1  UNL1       -0.2509
     17 O          -1.6300   10.9730   -9.4333 O.3     1  UNL1       -0.4679
     18 C          -1.7260   12.1653  -10.2095 C.3     1  UNL1        0.0817
     19 C           2.2718    2.8712   -2.0109 C.2     1  UNL1       -0.0038
     20 C           0.9028    3.1936   -2.5460 C.3     1  UNL1       -0.0361
     21 C           2.3872    1.6643   -1.1387 C.2     1  UNL1        0.1881
     22 O           1.4533    0.8770   -1.0213 O.2     1  UNL1       -0.2872
     23 O           5.9027    2.0323    0.0718 O.2     1  UNL1       -0.4987
     24 C           7.1330    2.1614   -0.6360 C.3     1  UNL1        0.0784
     25 H           3.9701   -1.6159    1.1361 H       1  UNL1        0.0233
     26 H           3.3806   -1.2855   -0.5026 H       1  UNL1        0.0233
     27 H           5.0599   -0.9125   -0.0693 H       1  UNL1        0.0233
     28 H           2.6015    0.4345    1.1848 H       1  UNL1        0.0313
     29 H           4.2590    0.7989    1.5727 H       1  UNL1        0.0313
     30 H           5.1975    4.1626   -1.3205 H       1  UNL1        0.0389
     31 H           5.3553    2.9368   -2.5932 H       1  UNL1        0.0389
     32 H           4.2722    5.0171   -3.6096 H       1  UNL1        0.0310
     33 H           2.5672    4.7705   -3.8462 H       1  UNL1        0.0310
     34 H           2.1115    5.9688   -1.6316 H       1  UNL1        0.0268
     35 H           3.8394    6.2291   -1.4482 H       1  UNL1        0.0268
     36 H           2.7754    8.2354   -2.3343 H       1  UNL1        0.0265
     37 H           3.8915    7.5768   -3.5283 H       1  UNL1        0.0265
     38 H           1.9592    6.4995   -4.7313 H       1  UNL1        0.0265
     39 H           0.8542    7.1297   -3.5087 H       1  UNL1        0.0265
     40 H           1.5148    9.4528   -4.1749 H       1  UNL1        0.0265
     41 H           2.6507    8.7856   -5.3535 H       1  UNL1        0.0265
     42 H           0.7618    7.6348   -6.5348 H       1  UNL1        0.0265
     43 H          -0.3781    8.3021   -5.3631 H       1  UNL1        0.0265
     44 H           0.3359   10.6188   -6.0035 H       1  UNL1        0.0270
     45 H           1.4650    9.9462   -7.1750 H       1  UNL1        0.0270
     46 H          -0.4322    8.9026   -8.4241 H       1  UNL1        0.0377
     47 H          -1.5775    9.5866   -7.2350 H       1  UNL1        0.0377
     48 H          -1.9591   13.0213   -9.5677 H       1  UNL1        0.0661
     49 H          -0.7965   12.3378  -10.7619 H       1  UNL1        0.0661
     50 H          -2.5391   12.0383  -10.9285 H       1  UNL1        0.0661
     51 H           0.5524    4.1526   -2.1496 H       1  UNL1        0.0279
     52 H           0.9159    3.2512   -3.6398 H       1  UNL1        0.0279
     53 H           0.1501    2.4456   -2.2823 H       1  UNL1        0.0279
     54 H           7.1882    1.4500   -1.4665 H       1  UNL1        0.0660
     55 H           7.2818    3.1850   -0.9933 H       1  UNL1        0.0660
     56 H           7.9445    1.9368    0.0625 H       1  UNL1        0.0660
@<TRIPOS>BOND
     1     1    25    1
     2     1    26    1
     3     1    27    1
     4     2     1    1
     5     2    28    1
     6     2    29    1
     7     3     2    1
     8     4     3    2
     9     5     4    1
    10     5    30    1
    11     5    31    1
    12     6     5    1
    13     7     6    1
    14     7    32    1
    15     7    33    1
    16     8     7    1
    17     8    34    1
    18     8    35    1
    19     9     8    1
    20     9    36    1
    21     9    37    1
    22    10     9    1
    23    10    38    1
    24    10    39    1
    25    11    10    1
    26    11    40    1
    27    11    41    1
    28    12    11    1
    29    12    42    1
    30    12    43    1
    31    13    12    1
    32    13    44    1
    33    13    45    1
    34    14    13    1
    35    14    46    1
    36    14    47    1
    37    15    14    1
    38    16    15    2
    39    17    15    1
    40    18    17    1
    41    18    48    1
    42    18    49    1
    43    18    50    1
    44    19     6    2
    45    20    19    1
    46    20    51    1
    47    20    52    1
    48    20    53    1
    49    21    19    1
    50    21     3    1
    51    22    21    2
    52    23     4    1
    53    24    23    1
    54    24    54    1
    55    24    55    1
    56    24    56    1
@<TRIPOS>MOLECULE
mol_653_akc_s0223_52340300119_3
>634.sdf
 34 36 0 0 0
SMALL
GASTEIGER

@<TRIPOS>ATOM
      1 C           1.2609    1.6920   -0.9148 C.3     1  UNL1       -0.0190
      2 C           0.3979    0.5836   -0.4514 C.ar    1  UNL1        0.0825
      3 N           0.7745   -0.1688    0.5876 N.ar    1  UNL1       -0.0814
      4 O          -0.2469   -1.0864    0.7736 O.2     1  UNL1       -0.3389
      5 C          -1.2236   -0.8823   -0.1532 C.ar    1  UNL1        0.2280
      6 C          -0.8492    0.1620   -0.9656 C.ar    1  UNL1        0.0231
      7 N          -2.3456   -1.6771   -0.1572 N.am    1  UNL1       -0.2222
      8 C          -3.4867   -1.5554   -1.0306 C.3     1  UNL1        0.0399
      9 C          -4.3072   -2.8034   -0.7410 C.3     1  UNL1        0.0328
     10 N          -3.8329   -3.2111    0.5565 N.am    1  UNL1       -0.2793
     11 C          -4.4860   -4.2158    1.3706 C.3     1  UNL1        0.0412
     12 C          -5.6971   -3.6565    2.0810 C.ar    1  UNL1       -0.0300
     13 C          -6.9744   -4.1906    1.8563 C.ar    1  UNL1       -0.0560
     14 C          -8.0880   -3.6674    2.5197 C.ar    1  UNL1       -0.0475
     15 C          -7.9299   -2.6089    3.4121 C.ar    1  UNL1        0.0179
     16 BR         -9.4393   -1.8954    4.2991 Br      1  UNL1       -0.0503
     17 C          -6.6680   -2.0733    3.6552 C.ar    1  UNL1       -0.0475
     18 C          -5.5558   -2.5989    2.9942 C.ar    1  UNL1       -0.0560
     19 C          -2.6034   -2.6173    0.8619 C.2     1  UNL1        0.3117
     20 O          -1.9346   -2.8846    1.8465 O.2     1  UNL1       -0.2520
     21 H           1.6040    2.2970   -0.0689 H       1  UNL1        0.0294
     22 H           2.1387    1.3009   -1.4388 H       1  UNL1        0.0294
     23 H           0.7197    2.3520   -1.6003 H       1  UNL1        0.0294
     24 H          -1.3971    0.5738   -1.7981 H       1  UNL1        0.0688
     25 H          -3.1894   -1.4813   -2.0808 H       1  UNL1        0.0485
     26 H          -4.0400   -0.6543   -0.7396 H       1  UNL1        0.0485
     27 H          -4.0716   -3.6048   -1.4502 H       1  UNL1        0.0481
     28 H          -5.3829   -2.6128   -0.7414 H       1  UNL1        0.0481
     29 H          -4.7577   -5.0516    0.7163 H       1  UNL1        0.0514
     30 H          -3.7860   -4.6011    2.1205 H       1  UNL1        0.0514
     31 H          -7.1124   -5.0206    1.1669 H       1  UNL1        0.0621
     32 H          -9.0710   -4.0937    2.3370 H       1  UNL1        0.0629
     33 H          -6.5365   -1.2533    4.3560 H       1  UNL1        0.0629
     34 H          -4.5687   -2.1809    3.1960 H       1  UNL1        0.0621
@<TRIPOS>BOND
     1     1    21    1
     2     1    22    1
     3     1    23    1
     4     2     1    1
     5     3     2   ar
     6     4     3   ar
     7     5     4   ar
     8     6     5   ar
     9     6     2   ar
    10     6    24    1
    11     7     5    1
    12     8     7    1
    13     8    25    1
    14     8    26    1
    15     9     8    1
    16     9    27    1
    17     9    28    1
    18    10     9    1
    19    11    10    1
    20    11    29    1
    21    11    30    1
    22    12    11    1
    23    13    12   ar
    24    13    31    1
    25    14    13   ar
    26    14    32    1
    27    15    14   ar
    28    16    15    1
    29    17    15   ar
    30    17    33    1
    31    18    17   ar
    32    18    12   ar
    33    18    34    1
    34    19    10   am
    35    19     7   am
    36    20    19    2
@<TRIPOS>MOLECULE
mol_654_akc_1475636021000005613
>635.sdf
 42 45 0 0 0
SMALL
GASTEIGER

@<TRIPOS>ATOM
      1 C          -0.0152   -1.4448   -0.3374 C.3     1  UNL1       -0.0471
      2 C           1.3383   -0.7565   -0.3252 C.3     1  UNL1        0.0205
      3 N           2.4292   -1.6871   -0.5664 N.ar    1  UNL1       -0.3465
      4 C           2.9499   -1.9396   -1.8069 C.ar    1  UNL1        0.0112
      5 C           3.9629   -2.8794   -1.6888 C.ar    1  UNL1        0.0050
      6 C           4.8031   -3.4674   -2.8149 C.3     1  UNL1        0.0888
      7 N           3.8719   -4.2007   -3.6843 N.ar    1  UNL1       -0.3253
      8 C           3.1277   -3.7435   -4.7431 C.ar    1  UNL1        0.0250
      9 C           2.4429   -4.8440   -5.2039 C.ar    1  UNL1        0.0454
     10 N           2.6767   -5.9324   -4.4073 N.ar    1  UNL1       -0.2440
     11 C           3.5147   -5.5119   -3.4861 C.ar    1  UNL1        0.0967
     12 C           5.6180   -2.3326   -3.4664 C.ar    1  UNL1       -0.0018
     13 C           5.9786   -1.1861   -2.7145 C.ar    1  UNL1       -0.0535
     14 C           6.5963   -0.0760   -3.2980 C.ar    1  UNL1       -0.0430
     15 C           6.9030   -0.0952   -4.6483 C.ar    1  UNL1        0.0424
     16 CL          7.5712    1.3004   -5.3959 Cl      1  UNL1       -0.0835
     17 C           6.7020   -1.2538   -5.3859 C.ar    1  UNL1       -0.0247
     18 C           6.1248   -2.3824   -4.7825 C.ar    1  UNL1        0.0478
     19 CL          6.1915   -3.8364   -5.7200 Cl      1  UNL1       -0.0831
     20 C           4.0348   -3.2159   -0.2919 C.ar    1  UNL1        0.0064
     21 C           3.0820   -2.4393    0.3818 C.ar    1  UNL1        0.0495
     22 C           2.8978   -2.5232    1.7743 C.ar    1  UNL1       -0.0366
     23 C           3.6905   -3.4206    2.4919 C.ar    1  UNL1       -0.0458
     24 C           4.6330   -4.2064    1.8411 C.ar    1  UNL1        0.0186
     25 BR          5.6669   -5.4401    2.8363 Br      1  UNL1       -0.0503
     26 C           4.8253   -4.1130    0.4569 C.ar    1  UNL1       -0.0382
     27 H          -0.8166   -0.7084   -0.2239 H       1  UNL1        0.0247
     28 H          -0.1775   -1.9842   -1.2769 H       1  UNL1        0.0247
     29 H          -0.0985   -2.1678    0.4806 H       1  UNL1        0.0247
     30 H           1.3798    0.0117   -1.1056 H       1  UNL1        0.0489
     31 H           1.5191   -0.2574    0.6325 H       1  UNL1        0.0489
     32 H           2.5559   -1.4408   -2.6844 H       1  UNL1        0.0813
     33 H           5.5172   -4.2024   -2.4262 H       1  UNL1        0.0630
     34 H           3.1778   -2.7259   -5.1023 H       1  UNL1        0.0825
     35 H           1.7888   -4.9066   -6.0634 H       1  UNL1        0.0845
     36 H           3.8862   -6.1028   -2.6595 H       1  UNL1        0.1029
     37 H           5.7640   -1.1233   -1.6477 H       1  UNL1        0.0622
     38 H           6.8173    0.7980   -2.6899 H       1  UNL1        0.0632
     39 H           7.0109   -1.2888   -6.4280 H       1  UNL1        0.0647
     40 H           2.1561   -1.9188    2.2861 H       1  UNL1        0.0639
     41 H           3.5532   -3.5030    3.5673 H       1  UNL1        0.0629
     42 H           5.5684   -4.7345   -0.0325 H       1  UNL1        0.0635
@<TRIPOS>BOND
     1     1    27    1
     2     1    28    1
     3     1    29    1
     4     2     1    1
     5     2    30    1
     6     2    31    1
     7     3     2    1
     8     4     3   ar
     9     4    32    1
    10     5     4   ar
    11     6     5    1
    12     6    33    1
    13     7     6    1
    14     8     7   ar
    15     8    34    1
    16     9     8   ar
    17     9    35    1
    18    10     9   ar
    19    11    10   ar
    20    11     7   ar
    21    11    36    1
    22    12     6    1
    23    13    12   ar
    24    13    37    1
    25    14    13   ar
    26    14    38    1
    27    15    14   ar
    28    16    15    1
    29    17    15   ar
    30    17    39    1
    31    18    17   ar
    32    18    12   ar
    33    19    18    1
    34    20     5   ar
    35    21    20   ar
    36    21     3   ar
    37    22    21   ar
    38    22    40    1
    39    23    22   ar
    40    23    41    1
    41    24    23   ar
    42    25    24    1
    43    26    24   ar
    44    26    20   ar
    45    26    42    1
@<TRIPOS>MOLECULE
mol_655_akc_s0001_706x0200180_8
>636.sdf
 28 29 0 0 0
SMALL
GASTEIGER

@<TRIPOS>ATOM
      1 BR          1.0967   -0.8048   -2.6732 Br      1  UNL1       -0.0499
      2 C           0.9588   -2.6925   -2.4752 C.ar    1  UNL1        0.0238
      3 C           0.6019   -3.3097   -1.2594 C.ar    1  UNL1        0.0006
      4 C           0.4771   -4.7144   -1.2494 C.ar    1  UNL1       -0.0548
      5 C           0.7241   -5.4717   -2.3962 C.ar    1  UNL1       -0.0613
      6 C           1.0887   -4.8427   -3.5823 C.ar    1  UNL1       -0.0607
      7 C           1.2054   -3.4558   -3.6229 C.ar    1  UNL1       -0.0474
      8 C           0.2359   -2.4990   -0.0228 C.3     1  UNL1        0.1349
      9 N           0.6381   -3.1840    1.2216 N.pl3   1  UNL1       -0.3253
     10 C           0.4758   -2.5806    2.4759 C.ar    1  UNL1        0.0283
     11 C          -0.0944   -1.3160    2.6873 C.ar    1  UNL1       -0.0408
     12 C          -0.3389   -0.8283    3.9761 C.ar    1  UNL1       -0.0600
     13 C          -0.0200   -1.5996    5.0862 C.ar    1  UNL1       -0.0616
     14 C           0.5476   -2.8547    4.9047 C.ar    1  UNL1       -0.0600
     15 C           0.7892   -3.3382    3.6133 C.ar    1  UNL1       -0.0408
     16 C          -1.2565   -2.2109   -0.0361 C.1     1  UNL1        0.0898
     17 N          -2.4945   -1.9718   -0.0471 N.1     1  UNL1       -0.1942
     18 H           0.1576   -5.2323   -0.3446 H       1  UNL1        0.0622
     19 H           0.6119   -6.5533   -2.3684 H       1  UNL1        0.0618
     20 H           1.2662   -5.4297   -4.4801 H       1  UNL1        0.0618
     21 H           1.4727   -2.9755   -4.5618 H       1  UNL1        0.0629
     22 H           0.7834   -1.5514   -0.0395 H       1  UNL1        0.0708
     23 H           1.5313   -3.6637    1.1503 H       1  UNL1        0.1476
     24 H          -0.3708   -0.6622    1.8676 H       1  UNL1        0.0636
     25 H          -0.7963    0.1501    4.1046 H       1  UNL1        0.0618
     26 H          -0.2274   -1.2274    6.0861 H       1  UNL1        0.0618
     27 H           0.7837   -3.4719    5.7672 H       1  UNL1        0.0618
     28 H           1.1965   -4.3407    3.5025 H       1  UNL1        0.0636
@<TRIPOS>BOND
     1     2     1    1
     2     3     2   ar
     3     4     3   ar
     4     4    18    1
     5     5     4   ar
     6     5    19    1
     7     6     5   ar
     8     6    20    1
     9     7     6   ar
    10     7     2   ar
    11     7    21    1
    12     9     8    1
    13     9    23    1
    14    10     9    1
    15    11    10   ar
    16    11    24    1
    17    12    11   ar
    18    12    25    1
    19    13    12   ar
    20    13    26    1
    21    14    13   ar
    22    14    27    1
    23    15    14   ar
    24    15    10   ar
    25    15    28    1
    26    16     8    1
    27    17    16    3
    28     8    22    1
    29     8     3    1
@<TRIPOS>MOLECULE
mol_656_akc_aac4682569_25742002
>637.sdf
 43 45 0 0 0
SMALL
GASTEIGER

@<TRIPOS>ATOM
      1 C          12.3878    4.3973   -6.2042 C.3     1  UNL1        0.0788
      2 O          11.2689    3.8362   -5.5252 O.3     1  UNL1       -0.4950
      3 C          10.9026    2.5630   -5.8766 C.ar    1  UNL1        0.1222
      4 C          11.6007    1.7344   -6.7596 C.ar    1  UNL1       -0.0178
      5 C          11.1693    0.4215   -7.0118 C.ar    1  UNL1       -0.0308
      6 C          10.0280   -0.0493   -6.3526 C.ar    1  UNL1        0.0903
      7 N           9.4678   -1.3039   -6.3687 N.ar    1  UNL1       -0.2200
      8 C           8.4454   -1.2302   -5.5458 C.ar    1  UNL1        0.1981
      9 N           8.2775    0.0421   -5.0620 N.ar    1  UNL1       -0.3309
     10 C           9.3291    0.8021   -5.5061 C.ar    1  UNL1        0.0704
     11 C           9.7335    2.1108   -5.2427 C.ar    1  UNL1        0.0055
     12 S           7.4277   -2.5642   -5.1100 S.O     1  UNL1        0.0954
     13 O           6.3910   -1.9649   -4.1913 O.2     1  UNL1       -0.2488
     14 C           8.6172   -3.4575   -4.0602 C.3     1  UNL1        0.0734
     15 C           9.7039   -4.1945   -4.8005 C.ar    1  UNL1        0.0603
     16 N           9.2880   -5.3485   -5.3872 N.ar    1  UNL1       -0.2582
     17 C          10.2094   -6.1292   -5.9909 C.ar    1  UNL1        0.0343
     18 C          11.5623   -5.8379   -6.0667 C.ar    1  UNL1        0.0095
     19 C          12.4886   -6.8121   -6.7226 C.3     1  UNL1       -0.0348
     20 C          11.9703   -4.6255   -5.5040 C.ar    1  UNL1        0.1290
     21 O          13.2898   -4.2384   -5.4645 O.3     1  UNL1       -0.4945
     22 C          13.9086   -4.1078   -6.7423 C.3     1  UNL1        0.0788
     23 C          11.0511   -3.7981   -4.8205 C.ar    1  UNL1        0.0136
     24 C          11.5605   -2.5313   -4.1875 C.3     1  UNL1       -0.0345
     25 H          13.2906    3.7955   -6.0635 H       1  UNL1        0.0660
     26 H          12.1625    4.5347   -7.2666 H       1  UNL1        0.0660
     27 H          12.5814    5.3834   -5.7697 H       1  UNL1        0.0660
     28 H          12.5026    2.0652   -7.2635 H       1  UNL1        0.0655
     29 H          11.7222   -0.2324   -7.6757 H       1  UNL1        0.0641
     30 H           7.5391    0.3198   -4.4295 H       1  UNL1        0.1679
     31 H           9.1842    2.7522   -4.5631 H       1  UNL1        0.0675
     32 H           8.9883   -2.7825   -3.2869 H       1  UNL1        0.0470
     33 H           8.0219   -4.2055   -3.5209 H       1  UNL1        0.0470
     34 H           9.8082   -7.0494   -6.4088 H       1  UNL1        0.0833
     35 H          12.7359   -6.4816   -7.7355 H       1  UNL1        0.0279
     36 H          13.4067   -6.9311   -6.1383 H       1  UNL1        0.0279
     37 H          12.0329   -7.8061   -6.7981 H       1  UNL1        0.0279
     38 H          14.5696   -4.9641   -6.9108 H       1  UNL1        0.0660
     39 H          13.1954   -4.0092   -7.5677 H       1  UNL1        0.0660
     40 H          14.5349   -3.2105   -6.7259 H       1  UNL1        0.0660
     41 H          12.4646   -2.7282   -3.6030 H       1  UNL1        0.0279
     42 H          11.8062   -1.8016   -4.9638 H       1  UNL1        0.0279
     43 H          10.8530   -2.0672   -3.4997 H       1  UNL1        0.0279
@<TRIPOS>BOND
     1     1    25    1
     2     1    26    1
     3     1    27    1
     4     2     1    1
     5     3     2    1
     6     4     3   ar
     7     4    28    1
     8     5     4   ar
     9     5    29    1
    10     6     5   ar
    11     7     6   ar
    12     8     7   ar
    13     9     8   ar
    14     9    30    1
    15    10     9   ar
    16    10     6   ar
    17    11    10   ar
    18    11     3   ar
    19    11    31    1
    20    14    12    1
    21    14    32    1
    22    14    33    1
    23    15    14    1
    24    16    15   ar
    25    17    16   ar
    26    17    34    1
    27    18    17   ar
    28    19    18    1
    29    19    35    1
    30    19    36    1
    31    19    37    1
    32    20    18   ar
    33    21    20    1
    34    22    21    1
    35    22    38    1
    36    22    39    1
    37    22    40    1
    38    23    20   ar
    39    23    15   ar
    40    24    23    1
    41    24    41    1
    42    24    42    1
    43    24    43    1
    44    12    13    2
    45    12     8    1
@<TRIPOS>MOLECULE
mol_657_akc_aac463797_8072002
>638.sdf
 43 45 0 0 0
SMALL
GASTEIGER

@<TRIPOS>ATOM
      1 N           1.4330    0.9593   -0.2521 N.pl3   1  UNL1       -0.2525
      2 C           2.4176    0.0782   -0.0241 C.2     1  UNL1        0.2309
      3 N           2.7099   -0.0015    1.1754 N.2     1  UNL1       -0.4100
      4 C           3.1587   -0.6573   -1.0721 C.ar    1  UNL1        0.0573
      5 C           3.3212   -0.0800   -2.3328 C.ar    1  UNL1       -0.0466
      6 C           4.0087   -0.7716   -3.3351 C.ar    1  UNL1       -0.0527
      7 C           4.5382   -2.0484   -3.0977 C.ar    1  UNL1       -0.0112
      8 C           4.3881   -2.6020   -1.8151 C.ar    1  UNL1       -0.0527
      9 C           3.6996   -1.9182   -0.8080 C.ar    1  UNL1       -0.0466
     10 C           5.2065   -2.7806   -4.1846 C.ar    1  UNL1        0.0199
     11 C           5.9560   -2.2931   -5.2383 C.ar    1  UNL1       -0.0463
     12 C           6.4028   -3.3233   -6.1193 C.ar    1  UNL1       -0.0463
     13 C           5.9943   -4.5833   -5.7221 C.ar    1  UNL1        0.0199
     14 S           5.0434   -4.4824   -4.3010 S.2     1  UNL1       -0.0883
     15 C           6.2452   -5.8861   -6.3599 C.ar    1  UNL1       -0.0112
     16 C           6.3555   -7.0688   -5.6142 C.ar    1  UNL1       -0.0527
     17 C           6.6135   -8.2979   -6.2331 C.ar    1  UNL1       -0.0466
     18 C           6.7788   -8.3714   -7.6187 C.ar    1  UNL1        0.0573
     19 C           6.6609   -7.1982   -8.3761 C.ar    1  UNL1       -0.0466
     20 C           6.3964   -5.9727   -7.7501 C.ar    1  UNL1       -0.0527
     21 C           7.0924   -9.6779   -8.2695 C.2     1  UNL1        0.2309
     22 N           7.2519  -10.8430   -7.6282 N.pl3   1  UNL1       -0.2525
     23 N           7.2746   -9.7905   -9.4874 N.2     1  UNL1       -0.4100
     24 H           0.6667    1.1427    0.3951 H       1  UNL1        0.2882
     25 H           1.0546    0.9889   -1.2038 H       1  UNL1        0.2882
     26 H           3.7130   -0.0655    1.2821 H       1  UNL1        0.2551
     27 H           2.9332    0.9108   -2.5572 H       1  UNL1        0.0626
     28 H           4.1089   -0.3069   -4.3149 H       1  UNL1        0.0624
     29 H           4.7991   -3.5843   -1.5859 H       1  UNL1        0.0624
     30 H           3.5791   -2.4117    0.1510 H       1  UNL1        0.0626
     31 H           6.1825   -1.2430   -5.3825 H       1  UNL1        0.0629
     32 H           7.0063   -3.1341   -6.9992 H       1  UNL1        0.0629
     33 H           6.2550   -7.0537   -4.5298 H       1  UNL1        0.0624
     34 H           6.6862   -9.1711   -5.5929 H       1  UNL1        0.0626
     35 H           6.7701   -7.1858   -9.4552 H       1  UNL1        0.0626
     36 H           6.3014   -5.0798   -8.3670 H       1  UNL1        0.0624
     37 H           7.3528  -11.7781   -8.0129 H       1  UNL1        0.2882
     38 H           7.1060  -10.8988   -6.6196 H       1  UNL1        0.2882
     39 H           6.4876   -9.4068   -9.9900 H       1  UNL1        0.2551
     40 H           7.4447  -10.7424   -9.7478 H       1  UNL1        0.2551
     41 H           2.3441    0.7979    1.6605 H       1  UNL1        0.2551
     42 H           2.3231   -0.8496    1.5592 H       1  UNL1        0.2551
     43 H           8.0715   -9.2229   -9.7424 H       1  UNL1        0.2551
@<TRIPOS>BOND
     1     1    24    1
     2     1    25    1
     3     2     1    1
     4     3     2    2
     5     3    26    1
     6     3    41    1
     7     4     2    1
     8     5     4   ar
     9     5    27    1
    10     6     5   ar
    11     6    28    1
    12     7     6   ar
    13     8     7   ar
    14     8    29    1
    15     9     8   ar
    16     9     4   ar
    17     9    30    1
    18    10     7    1
    19    11    10   ar
    20    11    31    1
    21    12    11   ar
    22    12    32    1
    23    13    12   ar
    24    14    13   ar
    25    14    10   ar
    26    15    13    1
    27    16    15   ar
    28    16    33    1
    29    17    16   ar
    30    17    34    1
    31    18    17   ar
    32    19    18   ar
    33    19    35    1
    34    20    19   ar
    35    20    15   ar
    36    20    36    1
    37    21    18    1
    38    22    21    1
    39    22    37    1
    40    22    38    1
    41    23    21    2
    42    23    39    1
    43    23    40    1
    44     3    42    1
    45    23    43    1
@<TRIPOS>MOLECULE
mol_658_akc_parasite2002094367
>639.sdf
 13 13 0 0 0
SMALL
GASTEIGER

@<TRIPOS>ATOM
      1 N           3.2060    0.7182    1.0302 N.am    1  UNL1       -0.3228
      2 C           2.5947   -0.0162    0.0523 C.2     1  UNL1        0.2768
      3 O           1.5770    0.4034   -0.4900 O.2     1  UNL1       -0.2671
      4 C           3.2422   -1.2681   -0.2656 C.ar    1  UNL1        0.1888
      5 C           2.9421   -2.2313   -1.2103 C.ar    1  UNL1       -0.0113
      6 C           3.9165   -3.2495   -1.0803 C.ar    1  UNL1       -0.0231
      7 C           4.7509   -2.8521   -0.0629 C.ar    1  UNL1        0.0928
      8 O           4.3566   -1.6527    0.4376 O.2     1  UNL1       -0.4583
      9 H           2.8133    1.6128    1.2816 H       1  UNL1        0.1453
     10 H           4.0595    0.3910    1.4621 H       1  UNL1        0.1453
     11 H           2.1152   -2.1882   -1.9066 H       1  UNL1        0.0657
     12 H           3.9999   -4.1606   -1.6562 H       1  UNL1        0.0649
     13 H           5.6260   -3.2872    0.3998 H       1  UNL1        0.1029
@<TRIPOS>BOND
     1     1     9    1
     2     1    10    1
     3     2     1   am
     4     3     2    2
     5     4     2    1
     6     5     4   ar
     7     5    11    1
     8     6     5   ar
     9     6    12    1
    10     7     6   ar
    11     7    13    1
    12     8     7   ar
    13     8     4   ar
@<TRIPOS>MOLECULE
mol_659_akc_aac4682588_25942002
>640.sdf
 38 40 0 0 0
SMALL
GASTEIGER

@<TRIPOS>ATOM
      1 O           4.8322    2.2687   -0.9634 O.3     1  UNL1       -0.3935
      2 C           5.7774    1.2654   -0.5793 C.3     1  UNL1        0.0597
      3 C           5.0575   -0.0535   -0.2757 C.3     1  UNL1        0.0341
      4 N           4.3860   -0.5487   -1.4746 N.pl3   1  UNL1       -0.3213
      5 C           5.0848   -1.3606   -2.3033 C.ar    1  UNL1        0.1593
      6 N           6.1192   -2.0785   -1.9399 N.ar    1  UNL1       -0.2249
      7 C           6.6185   -2.7848   -3.0142 C.ar    1  UNL1        0.0804
      8 C           7.7317   -3.6418   -2.9823 C.ar    1  UNL1       -0.0334
      9 C           8.1324   -4.2971   -4.1501 C.ar    1  UNL1       -0.0385
     10 C           7.4218   -4.1534   -5.3468 C.ar    1  UNL1        0.0325
     11 N           7.8494   -4.8117   -6.5352 N.pl3   1  UNL1       -0.3138
     12 C           8.4442   -6.1105   -6.5866 C.ar    1  UNL1        0.0454
     13 C           9.3708   -6.4463   -7.5943 C.ar    1  UNL1        0.0799
     14 C           9.8871   -7.7512   -7.6634 C.ar    1  UNL1       -0.0460
     15 C           9.4874   -8.7252   -6.7466 C.ar    1  UNL1       -0.0609
     16 C           8.5471   -8.4096   -5.7737 C.ar    1  UNL1       -0.0600
     17 C           8.0145   -7.1216   -5.7072 C.ar    1  UNL1       -0.0397
     18 C           9.8688   -5.4794   -8.6127 C.2     1  UNL1        0.3386
     19 O           9.7903   -4.1823   -8.2475 O.3     1  UNL1       -0.4771
     20 O          10.3500   -5.8341   -9.6778 O.2     1  UNL1       -0.2451
     21 C           6.3426   -3.2555   -5.4024 C.ar    1  UNL1       -0.0246
     22 C           5.9471   -2.5990   -4.2211 C.ar    1  UNL1        0.0425
     23 S           4.6527   -1.4931   -3.9634 S.2     1  UNL1       -0.0524
     24 H           4.2598    2.4365   -0.1952 H       1  UNL1        0.2095
     25 H           6.4917    1.1481   -1.4002 H       1  UNL1        0.0573
     26 H           6.3196    1.6234    0.3013 H       1  UNL1        0.0573
     27 H           5.7575   -0.7848    0.1437 H       1  UNL1        0.0484
     28 H           4.2860    0.1246    0.4824 H       1  UNL1        0.0484
     29 H           3.8310    0.1683   -1.9371 H       1  UNL1        0.1480
     30 H           8.2726   -3.7844   -2.0522 H       1  UNL1        0.0640
     31 H           9.0123   -4.9354   -4.1010 H       1  UNL1        0.0637
     32 H           7.1027   -4.7791   -7.2372 H       1  UNL1        0.1522
     33 H          10.6116   -8.0125   -8.4336 H       1  UNL1        0.0626
     34 H           9.9026   -9.7281   -6.8018 H       1  UNL1        0.0618
     35 H           8.2187   -9.1688   -5.0653 H       1  UNL1        0.0618
     36 H           7.2562   -6.9150   -4.9548 H       1  UNL1        0.0636
     37 H           5.8014   -3.0767   -6.3265 H       1  UNL1        0.0648
     38 H           9.3645   -4.0573   -7.3702 H       1  UNL1        0.2954
@<TRIPOS>BOND
     1     1    24    1
     2     2     1    1
     3     2    25    1
     4     2    26    1
     5     3     2    1
     6     3    27    1
     7     3    28    1
     8     4     3    1
     9     4    29    1
    10     5     4    1
    11     6     5   ar
    12     7     6   ar
    13     8     7   ar
    14     8    30    1
    15     9     8   ar
    16     9    31    1
    17    10     9   ar
    18    11    10    1
    19    11    32    1
    20    12    11    1
    21    13    12   ar
    22    14    13   ar
    23    14    33    1
    24    15    14   ar
    25    15    34    1
    26    16    15   ar
    27    16    35    1
    28    17    16   ar
    29    17    12   ar
    30    17    36    1
    31    18    13    1
    32    19    18    1
    33    20    18    2
    34    21    10   ar
    35    21    37    1
    36    22    21   ar
    37    22     7   ar
    38    23    22   ar
    39    23     5   ar
    40    19    38    1
@<TRIPOS>MOLECULE
mol_65_akc_acsjmedchem1c00813
>64.sdf
 37 39 0 0 0
SMALL
GASTEIGER

@<TRIPOS>ATOM
      1 C           1.0342    0.0927    0.3005 C.3     1  UNL1        0.0004
      2 N           2.3905    0.0105   -0.2337 N.pl3   1  UNL1       -0.3360
      3 C           3.2003   -1.0996    0.2716 C.3     1  UNL1        0.0004
      4 C           3.0842    1.1888   -0.5361 C.ar    1  UNL1        0.0313
      5 C           4.2434    1.1430   -1.3217 C.ar    1  UNL1       -0.0400
      6 C           4.9177    2.3066   -1.6977 C.ar    1  UNL1       -0.0508
      7 C           4.4387    3.5588   -1.2948 C.ar    1  UNL1        0.0012
      8 C           5.0630    4.7513   -1.6855 C.ar    1  UNL1       -0.0416
      9 C           4.5483    6.0022   -1.3073 C.ar    1  UNL1        0.0223
     10 C           3.4035    5.9660   -0.4950 C.ar    1  UNL1        0.1246
     11 N           2.7741    7.1218   -0.0306 N.pl3   1  UNL1       -0.3426
     12 N           2.8017    4.8286   -0.0874 N.ar    1  UNL1       -0.2318
     13 C           3.2935    3.6451   -0.4936 C.ar    1  UNL1        0.0749
     14 C           2.6471    2.4635   -0.1322 C.ar    1  UNL1       -0.0146
     15 C           5.2007    7.2480   -1.7846 C.ar    1  UNL1       -0.0118
     16 C           5.6507    7.3626   -3.1150 C.ar    1  UNL1       -0.0355
     17 C           6.2776    8.5248   -3.5718 C.ar    1  UNL1        0.0429
     18 CL          6.8336    8.6075   -5.1984 Cl      1  UNL1       -0.0835
     19 C           6.4580    9.6122   -2.7281 C.ar    1  UNL1       -0.0250
     20 C           6.0145    9.5214   -1.4128 C.ar    1  UNL1        0.0429
     21 CL          6.2141   10.8658   -0.3560 Cl      1  UNL1       -0.0835
     22 C           5.4071    8.3530   -0.9403 C.ar    1  UNL1       -0.0355
     23 H           0.5273   -0.8715    0.1767 H       1  UNL1        0.0428
     24 H           1.0407    0.3409    1.3666 H       1  UNL1        0.0428
     25 H           0.4280    0.8260   -0.2434 H       1  UNL1        0.0428
     26 H           3.8265   -1.5277   -0.5176 H       1  UNL1        0.0428
     27 H           3.8366   -0.7794    1.1046 H       1  UNL1        0.0428
     28 H           2.5639   -1.9135    0.6379 H       1  UNL1        0.0428
     29 H           4.6160    0.1931   -1.6960 H       1  UNL1        0.0636
     30 H           5.8002    2.2243   -2.3274 H       1  UNL1        0.0625
     31 H           5.9615    4.6974   -2.2970 H       1  UNL1        0.0631
     32 H           1.9570    6.8142    0.4897 H       1  UNL1        0.1437
     33 H           2.5178    7.7300   -0.8024 H       1  UNL1        0.1437
     34 H           1.7673    2.5677    0.4962 H       1  UNL1        0.0657
     35 H           5.5079    6.5389   -3.8130 H       1  UNL1        0.0638
     36 H           6.9369   10.5178   -3.0865 H       1  UNL1        0.0647
     37 H           5.0907    8.3108    0.1014 H       1  UNL1        0.0638
@<TRIPOS>BOND
     1     1    23    1
     2     1    24    1
     3     1    25    1
     4     2     1    1
     5     3     2    1
     6     3    26    1
     7     3    27    1
     8     3    28    1
     9     4     2    1
    10     5     4   ar
    11     5    29    1
    12     6     5   ar
    13     6    30    1
    14     7     6   ar
    15     8     7   ar
    16     8    31    1
    17     9     8   ar
    18    10     9   ar
    19    11    10    1
    20    11    32    1
    21    11    33    1
    22    12    10   ar
    23    13    12   ar
    24    13     7   ar
    25    14    13   ar
    26    14     4   ar
    27    14    34    1
    28    15     9    1
    29    16    15   ar
    30    16    35    1
    31    17    16   ar
    32    18    17    1
    33    19    17   ar
    34    19    36    1
    35    20    19   ar
    36    21    20    1
    37    22    20   ar
    38    22    15   ar
    39    22    37    1
@<TRIPOS>MOLECULE
mol_660_akc_aac4551349_13542001
>641.sdf
 52 56 0 0 0
SMALL
GASTEIGER

@<TRIPOS>ATOM
      1 C           3.7395    2.1976    3.0633 C.3     1  UNL1       -0.0648
      2 C           3.6487    2.8270    1.6877 C.3     1  UNL1       -0.0479
      3 C           2.2205    3.1826    1.1984 C.3     1  UNL1        0.0037
      4 C           2.3874    3.9739   -0.1275 C.3     1  UNL1       -0.0374
      5 C           1.3777    3.4848   -1.1683 C.3     1  UNL1        0.0012
      6 C          -0.0133    3.6307   -0.5368 C.3     1  UNL1       -0.0187
      7 C          -0.2225    2.5096    0.5277 C.3     1  UNL1        0.1503
      8 C           1.2129    1.9921    0.9573 C.3     1  UNL1        0.0037
      9 N           1.8354    1.2207   -0.2395 N.4     1  UNL1        0.2391
     10 C           1.6558    2.0114   -1.5316 C.3     1  UNL1       -0.0286
     11 C           1.5475   -0.2639   -0.3503 C.3     1  UNL1       -0.0274
     12 C           0.1888   -0.7298    0.1580 C.3     1  UNL1        0.0150
     13 C          -0.9674    0.0797   -0.3069 C.ar    1  UNL1       -0.0128
     14 C          -1.1238    1.4435   -0.1220 C.ar    1  UNL1        0.0429
     15 N          -2.3840    1.7715   -0.5879 N.ar    1  UNL1       -0.3566
     16 C          -3.0409    0.6599   -1.0427 C.ar    1  UNL1        0.0470
     17 C          -4.3484    0.5344   -1.5248 C.ar    1  UNL1       -0.0378
     18 C          -4.7714   -0.7360   -1.9181 C.ar    1  UNL1       -0.0598
     19 C          -3.9113   -1.8282   -1.8453 C.ar    1  UNL1       -0.0611
     20 C          -2.6089   -1.6833   -1.3499 C.ar    1  UNL1       -0.0523
     21 C          -2.1639   -0.4140   -0.9239 C.ar    1  UNL1        0.0033
     22 C          -0.9669    3.0520    1.7709 C.2     1  UNL1        0.3244
     23 O          -0.9206    4.2119    2.1398 O.2     1  UNL1       -0.2496
     24 O          -1.7373    2.0835    2.3429 O.3     1  UNL1       -0.4671
     25 C          -2.9825    2.5168    2.9057 C.3     1  UNL1        0.0817
     26 H           3.3302    2.8639    3.8276 H       1  UNL1        0.0230
     27 H           4.7938    2.0205    3.3095 H       1  UNL1        0.0230
     28 H           3.2221    1.2369    3.1063 H       1  UNL1        0.0230
     29 H           4.2411    3.7527    1.7131 H       1  UNL1        0.0267
     30 H           4.1661    2.1775    0.9729 H       1  UNL1        0.0267
     31 H           1.7821    3.8495    1.9516 H       1  UNL1        0.0356
     32 H           3.3983    3.8732   -0.5399 H       1  UNL1        0.0274
     33 H           2.2446    5.0443    0.0730 H       1  UNL1        0.0274
     34 H           1.4400    4.1071   -2.0673 H       1  UNL1        0.0353
     35 H          -0.1075    4.6321   -0.0968 H       1  UNL1        0.0286
     36 H          -0.7641    3.6009   -1.3352 H       1  UNL1        0.0286
     37 H           1.1877    1.3170    1.8186 H       1  UNL1        0.0869
     38 H           2.8482    1.2272   -0.0866 H       1  UNL1        0.2037
     39 H           2.5888    1.9031   -2.0894 H       1  UNL1        0.0817
     40 H           0.8366    1.5705   -2.1069 H       1  UNL1        0.0817
     41 H           2.3283   -0.7603    0.2392 H       1  UNL1        0.0818
     42 H           1.7043   -0.5431   -1.3983 H       1  UNL1        0.0818
     43 H           0.1856   -0.7366    1.2558 H       1  UNL1        0.0366
     44 H           0.0611   -1.7781   -0.1386 H       1  UNL1        0.0366
     45 H          -2.8098    2.6899   -0.5549 H       1  UNL1        0.1656
     46 H          -5.0236    1.3829   -1.5770 H       1  UNL1        0.0638
     47 H          -5.7879   -0.8731   -2.2815 H       1  UNL1        0.0618
     48 H          -4.2622   -2.8080   -2.1625 H       1  UNL1        0.0618
     49 H          -1.9657   -2.5558   -1.2850 H       1  UNL1        0.0624
     50 H          -2.9629    3.5508    3.2597 H       1  UNL1        0.0661
     51 H          -3.7564    2.4119    2.1353 H       1  UNL1        0.0661
     52 H          -3.2410    1.8530    3.7338 H       1  UNL1        0.0661
@<TRIPOS>UNITY_ATOM_ATTR
9 1
charge 1
@<TRIPOS>BOND
     1     1    26    1
     2     1    27    1
     3     1    28    1
     4     2     1    1
     5     2    29    1
     6     2    30    1
     7     4     3    1
     8     4    32    1
     9     4    33    1
    10     5     4    1
    11     5    34    1
    12     6     5    1
    13     6    35    1
    14     6    36    1
    15     7     6    1
    16     7    22    1
    17     8     7    1
    18     8     3    1
    19     8    37    1
    20     9     8    1
    21     9    10    1
    22     9    38    1
    23    10     5    1
    24    10    39    1
    25    10    40    1
    26    11     9    1
    27    11    41    1
    28    11    42    1
    29    12    11    1
    30    12    43    1
    31    12    44    1
    32    13    12    1
    33    14    13   ar
    34    14     7    1
    35    15    14   ar
    36    15    45    1
    37    16    15   ar
    38    17    16   ar
    39    17    46    1
    40    18    17   ar
    41    18    47    1
    42    19    18   ar
    43    19    48    1
    44    20    19   ar
    45    20    49    1
    46    21    20   ar
    47    21    13   ar
    48    21    16   ar
    49    23    22    2
    50    24    22    1
    51    25    24    1
    52    25    50    1
    53    25    51    1
    54    25    52    1
    55     3    31    1
    56     3     2    1
@<TRIPOS>MOLECULE
mol_661_akc_s0001_706x0000161_3
>642.sdf
 36 39 0 0 0
SMALL
GASTEIGER

@<TRIPOS>ATOM
      1 C           0.9814    2.5528    0.1625 C.ar    1  UNL1       -0.0576
      2 C          -0.3359    2.1030    0.0794 C.ar    1  UNL1       -0.0500
      3 C          -0.6063    0.7273    0.0516 C.ar    1  UNL1        0.0360
      4 C           0.4345   -0.1999    0.1080 C.ar    1  UNL1        0.0744
      5 C           1.7538    0.2642    0.1951 C.ar    1  UNL1        0.1283
      6 C           2.0261    1.6327    0.2212 C.ar    1  UNL1       -0.0194
      7 O           2.8406   -0.5655    0.2527 O.3     1  UNL1       -0.5060
      8 C           0.1440   -1.6471    0.0451 C.2     1  UNL1        0.1981
      9 O           1.0713   -2.4519    0.0013 O.2     1  UNL1       -0.2865
     10 C          -1.2813   -2.0885   -0.0225 C.2     1  UNL1        0.0369
     11 C          -2.2608   -1.1754   -0.0725 C.2     1  UNL1       -0.0028
     12 C          -2.0025    0.2743   -0.0548 C.2     1  UNL1        0.1876
     13 O          -2.9358    1.0618   -0.1338 O.2     1  UNL1       -0.2872
     14 C          -1.5716   -3.5179   -0.0465 C.2     1  UNL1        0.0369
     15 C          -2.1903   -4.0894   -1.0888 C.2     1  UNL1       -0.0028
     16 C          -2.5011   -5.5265   -1.1430 C.2     1  UNL1        0.1876
     17 O          -3.0935   -5.9884   -2.1088 O.2     1  UNL1       -0.2872
     18 C          -2.0828   -6.3683   -0.0103 C.ar    1  UNL1        0.0360
     19 C          -1.4338   -5.8027    1.0875 C.ar    1  UNL1        0.0744
     20 C          -1.1743   -4.3490    1.1290 C.2     1  UNL1        0.1981
     21 O          -0.6851   -3.8473    2.1382 O.2     1  UNL1       -0.2865
     22 C          -1.0632   -6.6288    2.1574 C.ar    1  UNL1        0.1283
     23 C          -1.3408   -7.9955    2.1306 C.ar    1  UNL1       -0.0194
     24 C          -1.9893   -8.5543    1.0291 C.ar    1  UNL1       -0.0576
     25 C          -2.3600   -7.7428   -0.0421 C.ar    1  UNL1       -0.0500
     26 O          -0.4257   -6.1669    3.2781 O.3     1  UNL1       -0.5060
     27 H           1.1945    3.6193    0.1799 H       1  UNL1        0.0619
     28 H          -1.1485    2.8264    0.0317 H       1  UNL1        0.0625
     29 H           3.0553    1.9774    0.2834 H       1  UNL1        0.0654
     30 H           2.5259   -1.4976    0.2169 H       1  UNL1        0.2922
     31 H          -3.3105   -1.4481   -0.1263 H       1  UNL1        0.0663
     32 H          -2.5011   -3.5253   -1.9631 H       1  UNL1        0.0663
     33 H          -1.0517   -8.6236    2.9699 H       1  UNL1        0.0654
     34 H          -2.2074   -9.6179    1.0098 H       1  UNL1        0.0619
     35 H          -2.8685   -8.1835   -0.8988 H       1  UNL1        0.0625
     36 H          -0.2933   -5.1956    3.1860 H       1  UNL1        0.2922
@<TRIPOS>BOND
     1     1    27    1
     2     2     1   ar
     3     2    28    1
     4     3     2   ar
     5     4     3   ar
     6     5     4   ar
     7     6     5   ar
     8     6     1   ar
     9     6    29    1
    10     7     5    1
    11     7    30    1
    12     8     4    1
    13     9     8    2
    14    10     8    1
    15    11    10    2
    16    11    31    1
    17    12    11    1
    18    12     3    1
    19    13    12    2
    20    14    10    1
    21    15    14    2
    22    15    32    1
    23    16    15    1
    24    17    16    2
    25    18    16    1
    26    19    18   ar
    27    20    19    1
    28    20    14    1
    29    21    20    2
    30    22    19   ar
    31    23    22   ar
    32    23    33    1
    33    24    23   ar
    34    24    34    1
    35    25    24   ar
    36    25    18   ar
    37    25    35    1
    38    26    22    1
    39    26    36    1
@<TRIPOS>MOLECULE
mol_662_akc_jm000156
>643.sdf
 47 50 0 0 0
SMALL
GASTEIGER

@<TRIPOS>ATOM
      1 C           0.9989   -0.3265    0.2502 C.3     1  UNL1        0.0007
      2 N           2.4502   -0.1559    0.1822 N.pl3   1  UNL1       -0.3329
      3 C           3.1754   -0.4249   -1.0745 C.3     1  UNL1        0.0133
      4 C           2.2611   -0.7300   -2.2635 C.3     1  UNL1       -0.0211
      5 C           3.0447   -0.9298   -3.5657 C.3     1  UNL1        0.0188
      6 N           2.1138   -1.2219   -4.6853 N.pl3   1  UNL1       -0.2982
      7 C           1.7980   -2.5946   -4.9367 C.ar    1  UNL1        0.0479
      8 C           2.3394   -3.6565   -4.1728 C.ar    1  UNL1       -0.0393
      9 C           2.0687   -5.0058   -4.4437 C.ar    1  UNL1       -0.0599
     10 C           1.2253   -5.3486   -5.4838 C.ar    1  UNL1       -0.0606
     11 C           0.6481   -4.3377   -6.2394 C.ar    1  UNL1       -0.0462
     12 C           0.9237   -2.9786   -5.9753 C.ar    1  UNL1        0.0341
     13 S           0.0842   -1.8359   -7.0405 S.3     1  UNL1       -0.0857
     14 C           0.6028   -0.2633   -6.4079 C.ar    1  UNL1        0.0342
     15 C           0.0194    0.8494   -7.0511 C.ar    1  UNL1       -0.0448
     16 C           0.3376    2.1472   -6.6737 C.ar    1  UNL1       -0.0422
     17 C           1.2418    2.3355   -5.6458 C.ar    1  UNL1        0.0428
     18 CL          1.6559    3.9336   -5.1554 Cl      1  UNL1       -0.0835
     19 C           1.8227    1.2384   -4.9981 C.ar    1  UNL1       -0.0209
     20 C           1.5254   -0.1000   -5.3527 C.ar    1  UNL1        0.0493
     21 C           3.1461    0.2848    1.3042 C.ar    1  UNL1        0.0309
     22 C           4.4593   -0.1329    1.5833 C.ar    1  UNL1       -0.0209
     23 C           5.1344    0.2733    2.7453 C.ar    1  UNL1        0.0610
     24 CL          6.7280   -0.3500    3.0041 Cl      1  UNL1       -0.0820
     25 C           4.5180    1.1337    3.6480 C.ar    1  UNL1        0.0594
     26 CL          5.2752    1.6605    5.1089 Cl      1  UNL1       -0.0820
     27 C           3.2311    1.5920    3.3822 C.ar    1  UNL1       -0.0402
     28 C           2.5641    1.1733    2.2240 C.ar    1  UNL1       -0.0392
     29 H           0.5005    0.3346   -0.4651 H       1  UNL1        0.0428
     30 H           0.7314   -1.3645    0.0273 H       1  UNL1        0.0428
     31 H           0.5695   -0.1161    1.2343 H       1  UNL1        0.0428
     32 H           3.7810    0.4574   -1.3197 H       1  UNL1        0.0464
     33 H           3.8588   -1.2716   -0.9414 H       1  UNL1        0.0464
     34 H           1.6707   -1.6294   -2.0537 H       1  UNL1        0.0296
     35 H           1.5461    0.0893   -2.3957 H       1  UNL1        0.0296
     36 H           3.6727   -0.0585   -3.7821 H       1  UNL1        0.0468
     37 H           3.8061   -1.7072   -3.4464 H       1  UNL1        0.0468
     38 H           2.9925   -3.4848   -3.3253 H       1  UNL1        0.0636
     39 H           2.5236   -5.7826   -3.8340 H       1  UNL1        0.0618
     40 H           1.0120   -6.3910   -5.7044 H       1  UNL1        0.0618
     41 H          -0.0253   -4.6141   -7.0490 H       1  UNL1        0.0629
     42 H          -0.6945    0.7033   -7.8603 H       1  UNL1        0.0630
     43 H          -0.1198    2.9912   -7.1812 H       1  UNL1        0.0632
     44 H           2.5108    1.4800   -4.1966 H       1  UNL1        0.0651
     45 H           4.9618   -0.8264    0.9137 H       1  UNL1        0.0651
     46 H           2.7345    2.2767    4.0642 H       1  UNL1        0.0633
     47 H           1.5724    1.5802    2.0466 H       1  UNL1        0.0636
@<TRIPOS>BOND
     1     1    29    1
     2     1    30    1
     3     1    31    1
     4     2     1    1
     5     3     2    1
     6     3    32    1
     7     3    33    1
     8     4     3    1
     9     4    34    1
    10     4    35    1
    11     5     4    1
    12     5    36    1
    13     5    37    1
    14     6     5    1
    15     7     6    1
    16     8     7   ar
    17     8    38    1
    18     9     8   ar
    19     9    39    1
    20    10     9   ar
    21    10    40    1
    22    11    10   ar
    23    11    41    1
    24    12    11   ar
    25    12     7   ar
    26    13    12    1
    27    14    13    1
    28    15    14   ar
    29    15    42    1
    30    16    15   ar
    31    16    43    1
    32    17    16   ar
    33    18    17    1
    34    19    17   ar
    35    19    44    1
    36    20    19   ar
    37    20     6    1
    38    20    14   ar
    39    21     2    1
    40    22    21   ar
    41    22    45    1
    42    23    22   ar
    43    24    23    1
    44    25    23   ar
    45    26    25    1
    46    27    25   ar
    47    27    46    1
    48    28    27   ar
    49    28    21   ar
    50    28    47    1
@<TRIPOS>MOLECULE
mol_663_akc_s0960_894x0000154_2
>644.sdf
 98 100 0 0 0
SMALL
GASTEIGER

@<TRIPOS>ATOM
      1 C           1.0603   -4.6764    0.5420 C.3     1  UNL1       -0.0433
      2 N           2.5654   -4.6480    0.5730 N.4     1  UNL1        0.2309
      3 C           3.1461   -4.9033   -0.7918 C.3     1  UNL1       -0.0433
      4 C           3.0713   -3.3846    1.2116 C.3     1  UNL1       -0.0310
      5 C           4.5929   -3.3671    1.2655 C.3     1  UNL1        0.0030
      6 C           5.0301   -2.1392    2.0295 C.3     1  UNL1        0.0167
      7 N           6.4565   -1.9926    2.1584 N.am    1  UNL1       -0.3111
      8 C           7.1663   -2.8462    2.9794 C.2     1  UNL1        0.2476
      9 O           6.6175   -3.7354    3.6029 O.2     1  UNL1       -0.2701
     10 C           8.6435   -2.6863    3.0158 C.ar    1  UNL1        0.0794
     11 C           9.3641   -3.8868    3.1161 C.ar    1  UNL1       -0.0424
     12 C          10.7616   -3.9013    3.1338 C.ar    1  UNL1       -0.0408
     13 C          11.4044   -2.6572    3.0274 C.ar    1  UNL1       -0.0505
     14 C          10.7061   -1.4275    2.9637 C.ar    1  UNL1        0.0060
     15 C           9.3105   -1.4528    2.9531 C.ar    1  UNL1        0.1446
     16 O           8.5484   -0.3138    2.8950 O.3     1  UNL1       -0.4539
     17 C           9.1458    0.9188    2.9268 C.ar    1  UNL1        0.1446
     18 C           8.3072    2.0505    2.9361 C.ar    1  UNL1        0.0794
     19 C           8.8525    3.3449    2.9376 C.ar    1  UNL1       -0.0424
     20 C          10.2339    3.5574    2.9308 C.ar    1  UNL1       -0.0408
     21 C          11.0481    2.4109    2.9392 C.ar    1  UNL1       -0.0505
     22 C          10.5306    1.0941    2.9290 C.ar    1  UNL1        0.0060
     23 C          11.4744   -0.1075    2.9125 C.3     1  UNL1        0.0221
     24 C          12.3120   -0.0689    1.6124 C.3     1  UNL1       -0.0515
     25 C          12.4097   -0.0254    4.1456 C.3     1  UNL1       -0.0515
     26 C          10.8367    4.9737    2.9713 C.3     1  UNL1       -0.0126
     27 C          11.0391    5.3672    4.4471 C.3     1  UNL1       -0.0560
     28 C          12.1967    5.0523    2.2407 C.3     1  UNL1       -0.0560
     29 C           9.9244    6.0296    2.3044 C.3     1  UNL1       -0.0560
     30 C           6.8252    1.9684    2.9348 C.2     1  UNL1        0.2476
     31 O           6.1429    2.8441    2.4008 O.2     1  UNL1       -0.2701
     32 N           6.2435    0.9195    3.6037 N.am    1  UNL1       -0.3111
     33 C           4.8359    0.6457    3.4849 C.3     1  UNL1        0.0167
     34 C           3.9621    1.2847    4.5333 C.3     1  UNL1        0.0030
     35 C           4.0843    2.7896    4.5120 C.3     1  UNL1       -0.0310
     36 N           3.1714    3.4077    5.5392 N.4     1  UNL1        0.2309
     37 C           3.4765    2.9734    6.9490 C.3     1  UNL1       -0.0433
     38 C           3.2300    4.9056    5.4027 C.3     1  UNL1       -0.0433
     39 C          11.5547   -5.2171    3.2119 C.3     1  UNL1       -0.0126
     40 C          11.8140   -5.7080    1.7752 C.3     1  UNL1       -0.0560
     41 C          12.9092   -5.0375    3.9351 C.3     1  UNL1       -0.0560
     42 C          10.7982   -6.3262    3.9801 C.3     1  UNL1       -0.0560
     43 H           0.7469   -5.6289    0.1098 H       1  UNL1        0.0777
     44 H           0.6977   -4.5939    1.5704 H       1  UNL1        0.0777
     45 H           0.7109   -3.8345   -0.0626 H       1  UNL1        0.0777
     46 H           2.8624   -5.4319    1.1730 H       1  UNL1        0.2028
     47 H           2.9678   -4.0210   -1.4121 H       1  UNL1        0.0777
     48 H           4.2152   -5.0980   -0.6778 H       1  UNL1        0.0777
     49 H           2.6673   -5.7906   -1.2083 H       1  UNL1        0.0777
     50 H           2.6803   -2.5350    0.6384 H       1  UNL1        0.0815
     51 H           2.6447   -3.3501    2.2225 H       1  UNL1        0.0815
     52 H           4.9580   -4.2777    1.7520 H       1  UNL1        0.0332
     53 H           5.0336   -3.3252    0.2650 H       1  UNL1        0.0332
     54 H           4.6569   -1.2400    1.5276 H       1  UNL1        0.0464
     55 H           4.5995   -2.2131    3.0334 H       1  UNL1        0.0464
     56 H           6.9297   -1.1848    1.7711 H       1  UNL1        0.1490
     57 H           8.8058   -4.8184    3.1599 H       1  UNL1        0.0629
     58 H          12.4920   -2.6299    2.9914 H       1  UNL1        0.0625
     59 H           8.1673    4.1895    2.9528 H       1  UNL1        0.0629
     60 H          12.1288    2.5346    2.9540 H       1  UNL1        0.0625
     61 H          13.0276   -0.8970    1.5576 H       1  UNL1        0.0241
     62 H          11.6697   -0.1336    0.7249 H       1  UNL1        0.0241
     63 H          12.8972    0.8533    1.5250 H       1  UNL1        0.0241
     64 H          11.8338   -0.0492    5.0791 H       1  UNL1        0.0241
     65 H          13.1257   -0.8535    4.1825 H       1  UNL1        0.0241
     66 H          13.0091    0.8911    4.1547 H       1  UNL1        0.0241
     67 H          11.7275    4.6820    4.9555 H       1  UNL1        0.0238
     68 H          11.4528    6.3784    4.5340 H       1  UNL1        0.0238
     69 H          10.0919    5.3486    5.0000 H       1  UNL1        0.0238
     70 H          12.1088    4.6964    1.2073 H       1  UNL1        0.0238
     71 H          12.5705    6.0818    2.2089 H       1  UNL1        0.0238
     72 H          12.9725    4.4600    2.7371 H       1  UNL1        0.0238
     73 H           9.7026    5.7611    1.2649 H       1  UNL1        0.0238
     74 H           8.9730    6.1543    2.8329 H       1  UNL1        0.0238
     75 H          10.4025    7.0162    2.2990 H       1  UNL1        0.0238
     76 H           6.8549    0.2055    4.0102 H       1  UNL1        0.1490
     77 H           4.4941    0.8900    2.4725 H       1  UNL1        0.0464
     78 H           4.7303   -0.4135    3.6590 H       1  UNL1        0.0464
     79 H           2.9209    0.9824    4.3543 H       1  UNL1        0.0332
     80 H           4.2549    0.8704    5.5039 H       1  UNL1        0.0332
     81 H           5.0981    3.1216    4.7516 H       1  UNL1        0.0815
     82 H           3.7790    3.1804    3.5341 H       1  UNL1        0.0815
     83 H           2.2066    3.1258    5.3255 H       1  UNL1        0.2028
     84 H           4.5367    3.1555    7.1484 H       1  UNL1        0.0777
     85 H           2.8379    3.5406    7.6277 H       1  UNL1        0.0777
     86 H           3.2375    1.9110    7.0441 H       1  UNL1        0.0777
     87 H           4.2533    5.2284    5.6137 H       1  UNL1        0.0777
     88 H           2.9446    5.1596    4.3779 H       1  UNL1        0.0777
     89 H           2.5202    5.3367    6.1093 H       1  UNL1        0.0777
     90 H          12.3965   -4.9788    1.1999 H       1  UNL1        0.0238
     91 H          12.3699   -6.6525    1.7741 H       1  UNL1        0.0238
     92 H          10.8749   -5.8760    1.2341 H       1  UNL1        0.0238
     93 H          12.7673   -4.6067    4.9333 H       1  UNL1        0.0238
     94 H          13.4245   -5.9973    4.0557 H       1  UNL1        0.0238
     95 H          13.5955   -4.3882    3.3815 H       1  UNL1        0.0238
     96 H          10.5380   -5.9989    4.9935 H       1  UNL1        0.0238
     97 H           9.8754   -6.6308    3.4751 H       1  UNL1        0.0238
     98 H          11.4109   -7.2311    4.0696 H       1  UNL1        0.0238
@<TRIPOS>UNITY_ATOM_ATTR
2 1
charge 1
36 1
charge 1
@<TRIPOS>BOND
     1     1    43    1
     2     1    44    1
     3     1    45    1
     4     2     1    1
     5     2    46    1
     6     3     2    1
     7     3    47    1
     8     3    48    1
     9     3    49    1
    10     4     2    1
    11     4    50    1
    12     4    51    1
    13     5     4    1
    14     5    52    1
    15     5    53    1
    16     6     5    1
    17     6    54    1
    18     6    55    1
    19     7     6    1
    20     7    56    1
    21     8     7   am
    22     9     8    2
    23    10     8    1
    24    11    10   ar
    25    11    57    1
    26    12    11   ar
    27    13    12   ar
    28    13    58    1
    29    14    13   ar
    30    15    14   ar
    31    15    10   ar
    32    16    15    1
    33    17    16    1
    34    18    17   ar
    35    19    18   ar
    36    19    59    1
    37    20    19   ar
    38    21    20   ar
    39    21    60    1
    40    22    21   ar
    41    22    17   ar
    42    23    22    1
    43    23    14    1
    44    24    23    1
    45    24    61    1
    46    24    62    1
    47    24    63    1
    48    25    23    1
    49    25    64    1
    50    25    65    1
    51    25    66    1
    52    26    20    1
    53    27    26    1
    54    27    67    1
    55    27    68    1
    56    27    69    1
    57    28    26    1
    58    28    70    1
    59    28    71    1
    60    28    72    1
    61    29    26    1
    62    29    73    1
    63    29    74    1
    64    29    75    1
    65    30    18    1
    66    31    30    2
    67    32    30   am
    68    32    76    1
    69    33    32    1
    70    33    77    1
    71    33    78    1
    72    34    33    1
    73    34    79    1
    74    34    80    1
    75    35    34    1
    76    35    81    1
    77    35    82    1
    78    36    35    1
    79    36    83    1
    80    37    36    1
    81    37    84    1
    82    37    85    1
    83    37    86    1
    84    38    36    1
    85    38    87    1
    86    38    88    1
    87    38    89    1
    88    39    12    1
    89    40    39    1
    90    40    90    1
    91    40    91    1
    92    40    92    1
    93    41    39    1
    94    41    93    1
    95    41    94    1
    96    41    95    1
    97    42    39    1
    98    42    96    1
    99    42    97    1
   100    42    98    1
@<TRIPOS>MOLECULE
mol_664_akc_s_1999_13993
>645.sdf
 28 30 0 0 0
SMALL
GASTEIGER

@<TRIPOS>ATOM
      1 O           1.1369    0.0279   -0.0043 O.3     1  UNL1       -0.5066
      2 C           2.5006    0.0895   -0.0152 C.ar    1  UNL1        0.1204
      3 C           3.0768    1.3566   -0.0137 C.ar    1  UNL1        0.0229
      4 C           4.4507    1.4207   -0.0277 C.ar    1  UNL1        0.1430
      5 C           5.2372    0.2716   -0.0442 C.ar    1  UNL1        0.0678
      6 C           4.6818   -0.9940   -0.0424 C.ar    1  UNL1       -0.0438
      7 C           3.2830   -1.0805   -0.0274 C.ar    1  UNL1       -0.0193
      8 C           6.6338    0.7076   -0.0607 C.2     1  UNL1        0.2315
      9 O           7.6277    0.0165   -0.0794 O.2     1  UNL1       -0.2832
     10 C           6.5176    2.1929   -0.0447 C.2     1  UNL1        0.1761
     11 O           5.1798    2.5804   -0.0260 O.3     1  UNL1       -0.4513
     12 C           7.5419    3.0550   -0.0392 C.2     1  UNL1       -0.0083
     13 C           7.2758    4.4942    0.0076 C.ar    1  UNL1       -0.0214
     14 C           7.1270    5.1352    1.2430 C.ar    1  UNL1       -0.0545
     15 C           6.7290    6.4723    1.2977 C.ar    1  UNL1       -0.0612
     16 C           6.4822    7.1755    0.1195 C.ar    1  UNL1       -0.0617
     17 C           6.6465    6.5478   -1.1149 C.ar    1  UNL1       -0.0612
     18 C           7.0424    5.2098   -1.1723 C.ar    1  UNL1       -0.0545
     19 H           0.8582   -0.9024   -0.0148 H       1  UNL1        0.2921
     20 H           2.4699    2.2543   -0.0034 H       1  UNL1        0.0691
     21 H           5.3054   -1.8819   -0.0516 H       1  UNL1        0.0627
     22 H           2.8132   -2.0603   -0.0254 H       1  UNL1        0.0654
     23 H           8.5751    2.7251   -0.0514 H       1  UNL1        0.0661
     24 H           7.2884    4.5892    2.1695 H       1  UNL1        0.0623
     25 H           6.5924    6.9583    2.2602 H       1  UNL1        0.0618
     26 H           6.1519    8.2102    0.1636 H       1  UNL1        0.0618
     27 H           6.4470    7.0946   -2.0327 H       1  UNL1        0.0618
     28 H           7.1362    4.7232   -2.1402 H       1  UNL1        0.0623
@<TRIPOS>BOND
     1     1    19    1
     2     2     1    1
     3     3     2   ar
     4     3    20    1
     5     4     3   ar
     6     5     4   ar
     7     6     5   ar
     8     6    21    1
     9     7     6   ar
    10     7     2   ar
    11     7    22    1
    12     8     5    1
    13     9     8    2
    14    10     8    1
    15    11    10    1
    16    11     4    1
    17    12    10    2
    18    12    23    1
    19    13    12    1
    20    14    13   ar
    21    14    24    1
    22    15    14   ar
    23    15    25    1
    24    16    15   ar
    25    16    26    1
    26    17    16   ar
    27    17    27    1
    28    18    17   ar
    29    18    13   ar
    30    18    28    1
@<TRIPOS>MOLECULE
mol_665_akc_j1574_69681999tb13495x
>646.sdf
 32 31 0 0 0
SMALL
GASTEIGER

@<TRIPOS>ATOM
      1 C          13.7864   -1.7686   -8.5310 C.3     1  UNL1       -0.0653
      2 C          13.3572   -2.8594   -7.5615 C.3     1  UNL1       -0.0551
      3 C          12.3503   -2.3082   -6.5583 C.3     1  UNL1       -0.0411
      4 C          11.8880   -3.3597   -5.5534 C.3     1  UNL1        0.0315
      5 S          10.7026   -2.6381   -4.4113 S.3     1  UNL1        0.0460
      6 N          11.3781   -1.4708   -3.6571 N.2     1  UNL1       -0.2518
      7 O           9.4553   -2.4917   -5.1511 O.2     1  UNL1       -0.2477
      8 C          10.3952   -3.9201   -3.2039 C.3     1  UNL1        0.0370
      9 C           9.3906   -3.4277   -2.1562 C.3     1  UNL1        0.0078
     10 CA          9.0512   -4.4401   -1.0690 C.3     1  UNL1        0.0169
     11 N           8.0474   -3.7697   -0.1365 N.4     1  UNL1        0.2249
     12 C          10.2671   -5.0039   -0.2639 C.2     1  UNL1        0.0894
     13 O          11.1705   -5.5511   -0.9362 O.co2   1  UNL1       -0.5442
     14 OXT        10.1195   -4.8226    0.9758 O.co2   1  UNL1       -0.5442
     15 H          14.5116   -2.1585   -9.2508 H       1  UNL1        0.0230
     16 H          12.9258   -1.3815   -9.0865 H       1  UNL1        0.0230
     17 H          14.2499   -0.9332   -7.9957 H       1  UNL1        0.0230
     18 H          12.9164   -3.6915   -8.1219 H       1  UNL1        0.0263
     19 H          14.2380   -3.2455   -7.0361 H       1  UNL1        0.0263
     20 H          12.8023   -1.4651   -6.0230 H       1  UNL1        0.0274
     21 H          11.4817   -1.9080   -7.0963 H       1  UNL1        0.0274
     22 H          11.3864   -4.1840   -6.0737 H       1  UNL1        0.0410
     23 H          12.7302   -3.7642   -4.9842 H       1  UNL1        0.0410
     24 H          12.2939   -1.6948   -3.2642 H       1  UNL1        0.1971
     25 H          10.0016   -4.7905   -3.7394 H       1  UNL1        0.0412
     26 H          11.3670   -4.1611   -2.7720 H       1  UNL1        0.0412
     27 H           9.7596   -2.4987   -1.7024 H       1  UNL1        0.0333
     28 H           8.4583   -3.1577   -2.6710 H       1  UNL1        0.0333
     29 HA          8.5043   -5.2839   -1.4957 H       1  UNL1        0.0915
     30 H1          7.8430   -4.4516    0.6095 H       1  UNL1        0.2001
     31 H2          8.5517   -3.0285    0.3702 H       1  UNL1        0.2001
     32 H3          7.2026   -3.4272   -0.5920 H       1  UNL1        0.2001
@<TRIPOS>UNITY_ATOM_ATTR
11 1
charge 1
13 1
charge -1
@<TRIPOS>BOND
     1     1    15    1
     2     1    16    1
     3     1    17    1
     4     2     1    1
     5     2    18    1
     6     2    19    1
     7     3     2    1
     8     3    20    1
     9     3    21    1
    10     4     3    1
    11     4    22    1
    12     4    23    1
    13     5     4    1
    14     6     5    2
    15     6    24    1
    16     7     5    2
    17     8     5    1
    18     8    25    1
    19     8    26    1
    20     9     8    1
    21     9    27    1
    22     9    28    1
    23    11    10    1
    24    11    30    1
    25    11    31    1
    26    11    32    1
    27    12    10    1
    28    13    12   ar
    29    14    12   ar
    30    10    29    1
    31    10     9    1
@<TRIPOS>MOLECULE
mol_666_akc_jac433359
>647.sdf
 46 50 0 0 0
SMALL
GASTEIGER

@<TRIPOS>ATOM
      1 N          -1.6759   -3.6033   -0.5747 N.pl3   1  UNL1       -0.3577
      2 C          -0.9639   -4.0602    0.5465 C.ar    1  UNL1        0.0281
      3 C          -1.4808   -5.1616    1.2468 C.ar    1  UNL1       -0.0408
      4 C          -0.7777   -5.7465    2.2978 C.ar    1  UNL1       -0.0600
      5 C           0.4788   -5.2644    2.6340 C.ar    1  UNL1       -0.0614
      6 C           1.0316   -4.2038    1.9145 C.ar    1  UNL1       -0.0565
      7 C           0.3394   -3.6035    0.8436 C.ar    1  UNL1       -0.0209
      8 C           0.9480   -2.4219    0.0996 C.3     1  UNL1        0.0172
      9 C           2.4619   -2.3449    0.0279 C.ar    1  UNL1        0.0554
     10 N           3.0332   -1.6650    1.0691 N.ar    1  UNL1       -0.2506
     11 C           4.3575   -1.4423    1.0702 C.ar    1  UNL1        0.0713
     12 C           4.9385   -0.7483    2.1238 C.ar    1  UNL1       -0.0357
     13 C           6.3056   -0.4550    2.1468 C.ar    1  UNL1       -0.0597
     14 C           7.1189   -0.8684    1.0982 C.ar    1  UNL1       -0.0611
     15 C           6.5637   -1.5876    0.0423 C.ar    1  UNL1       -0.0525
     16 C           5.1868   -1.8790    0.0265 C.ar    1  UNL1        0.0010
     17 C           4.5943   -2.6042   -1.0149 C.ar    1  UNL1       -0.0417
     18 C           3.2144   -2.8649   -1.0349 C.ar    1  UNL1        0.0205
     19 C           2.6831   -3.6494   -2.1595 C.ar    1  UNL1        0.0492
     20 C           3.0982   -3.6995   -3.4833 C.ar    1  UNL1       -0.0286
     21 C           2.3879   -4.7336   -4.1495 C.ar    1  UNL1        0.0003
     22 C           2.4269   -5.2756   -5.4485 C.ar    1  UNL1       -0.0526
     23 C           1.5829   -6.3463   -5.7662 C.ar    1  UNL1       -0.0611
     24 C           0.6976   -6.8591   -4.8197 C.ar    1  UNL1       -0.0598
     25 C           0.6347   -6.3274   -3.5286 C.ar    1  UNL1       -0.0378
     26 C           1.5037   -5.2748   -3.2231 C.ar    1  UNL1        0.0469
     27 N           1.6921   -4.6009   -2.0392 N.ar    1  UNL1       -0.3541
     28 H          -1.5155   -2.6261   -0.8055 H       1  UNL1        0.1423
     29 H          -2.6707   -3.8000   -0.5274 H       1  UNL1        0.1423
     30 H          -2.4574   -5.5642    0.9863 H       1  UNL1        0.0636
     31 H          -1.2116   -6.5762    2.8492 H       1  UNL1        0.0618
     32 H           1.0348   -5.7115    3.4545 H       1  UNL1        0.0618
     33 H           2.0181   -3.8489    2.2074 H       1  UNL1        0.0621
     34 H           0.5613   -2.3556   -0.9227 H       1  UNL1        0.0377
     35 H           0.5873   -1.5135    0.6020 H       1  UNL1        0.0377
     36 H           4.3071   -0.4205    2.9460 H       1  UNL1        0.0639
     37 H           6.7267    0.1005    2.9805 H       1  UNL1        0.0618
     38 H           8.1800   -0.6329    1.1020 H       1  UNL1        0.0618
     39 H           7.2061   -1.9129   -0.7730 H       1  UNL1        0.0624
     40 H           5.2246   -2.9781   -1.8195 H       1  UNL1        0.0631
     41 H           3.8726   -3.0841   -3.9230 H       1  UNL1        0.0645
     42 H           3.1153   -4.8825   -6.1902 H       1  UNL1        0.0624
     43 H           1.6226   -6.7837   -6.7603 H       1  UNL1        0.0618
     44 H           0.0490   -7.6907   -5.0848 H       1  UNL1        0.0618
     45 H          -0.0528   -6.7261   -2.7893 H       1  UNL1        0.0638
     46 H           1.1932   -4.8264   -1.1907 H       1  UNL1        0.1659
@<TRIPOS>BOND
     1     1    28    1
     2     1    29    1
     3     2     1    1
     4     3     2   ar
     5     3    30    1
     6     4     3   ar
     7     4    31    1
     8     5     4   ar
     9     5    32    1
    10     6     5   ar
    11     6    33    1
    12     7     6   ar
    13     7     2   ar
    14     8     7    1
    15     8    34    1
    16     8    35    1
    17     9     8    1
    18    10     9   ar
    19    11    10   ar
    20    12    11   ar
    21    12    36    1
    22    13    12   ar
    23    13    37    1
    24    14    13   ar
    25    14    38    1
    26    15    14   ar
    27    15    39    1
    28    16    15   ar
    29    16    11   ar
    30    17    16   ar
    31    17    40    1
    32    18    17   ar
    33    18     9   ar
    34    19    18    1
    35    20    19   ar
    36    20    41    1
    37    21    20   ar
    38    22    21   ar
    39    22    42    1
    40    23    22   ar
    41    23    43    1
    42    24    23   ar
    43    24    44    1
    44    25    24   ar
    45    25    45    1
    46    26    25   ar
    47    26    21   ar
    48    27    26   ar
    49    27    19   ar
    50    27    46    1
@<TRIPOS>MOLECULE
mol_667_akc_aac4351234
>648.sdf
 34 35 0 0 0
SMALL
GASTEIGER

@<TRIPOS>ATOM
      1 C           1.1285   -0.0123   -0.4084 C.3     1  UNL1        0.0788
      2 O           2.4345   -0.1182    0.1472 O.3     1  UNL1       -0.4949
      3 C           3.0507   -1.3360    0.0644 C.ar    1  UNL1        0.1271
      4 C           2.5257   -2.4769   -0.5421 C.ar    1  UNL1        0.0225
      5 C           3.2596   -3.6724   -0.5546 C.ar    1  UNL1        0.1346
      6 O           2.7225   -4.7477   -1.2109 O.3     1  UNL1       -0.5058
      7 C           4.5218   -3.7543    0.0527 C.ar    1  UNL1        0.1045
      8 C           5.3415   -4.9980    0.1138 C.2     1  UNL1        0.1931
      9 O           6.5646   -4.8963    0.2124 O.2     1  UNL1       -0.2870
     10 C           4.6707   -6.3239    0.1564 C.2     1  UNL1       -0.0135
     11 C           5.3993   -7.4493    0.1393 C.2     1  UNL1       -0.0510
     12 C           4.7552   -8.7615    0.1542 C.ar    1  UNL1       -0.0249
     13 C           4.4353   -9.3957   -1.0513 C.ar    1  UNL1       -0.0546
     14 C           3.8208  -10.6493   -1.0445 C.ar    1  UNL1       -0.0612
     15 C           3.5204  -11.2722    0.1662 C.ar    1  UNL1       -0.0617
     16 C           3.8270  -10.6394    1.3707 C.ar    1  UNL1       -0.0612
     17 C           4.4410   -9.3849    1.3659 C.ar    1  UNL1       -0.0546
     18 C           5.0501   -2.5838    0.6239 C.ar    1  UNL1        0.1346
     19 O           6.2949   -2.5248    1.1992 O.3     1  UNL1       -0.5058
     20 C           4.3198   -1.3942    0.6397 C.ar    1  UNL1        0.0225
     21 H           1.1483   -0.1825   -1.4898 H       1  UNL1        0.0660
     22 H           0.4322   -0.6978    0.0864 H       1  UNL1        0.0660
     23 H           0.7707    1.0069   -0.2369 H       1  UNL1        0.0660
     24 H           1.5514   -2.4487   -1.0165 H       1  UNL1        0.0691
     25 H           1.8452   -4.5192   -1.5625 H       1  UNL1        0.2922
     26 H           3.5913   -6.3660    0.2107 H       1  UNL1        0.0656
     27 H           6.4850   -7.4384    0.0978 H       1  UNL1        0.0625
     28 H           4.6656   -8.9185   -2.0010 H       1  UNL1        0.0623
     29 H           3.5802  -11.1406   -1.9837 H       1  UNL1        0.0618
     30 H           3.0486  -12.2515    0.1711 H       1  UNL1        0.0618
     31 H           3.5913  -11.1245    2.3143 H       1  UNL1        0.0618
     32 H           4.6761   -8.9013    2.3110 H       1  UNL1        0.0623
     33 H           6.7748   -3.3529    0.9684 H       1  UNL1        0.2922
     34 H           4.7494   -0.5072    1.0998 H       1  UNL1        0.0691
@<TRIPOS>BOND
     1     1    21    1
     2     1    22    1
     3     1    23    1
     4     2     1    1
     5     3     2    1
     6     4     3   ar
     7     4    24    1
     8     5     4   ar
     9     6     5    1
    10     6    25    1
    11     7     5   ar
    12     8     7    1
    13     9     8    2
    14    10     8    1
    15    10    26    1
    16    11    10    2
    17    11    27    1
    18    12    11    1
    19    13    12   ar
    20    13    28    1
    21    14    13   ar
    22    14    29    1
    23    15    14   ar
    24    15    30    1
    25    16    15   ar
    26    16    31    1
    27    17    16   ar
    28    17    12   ar
    29    17    32    1
    30    18     7   ar
    31    19    18    1
    32    19    33    1
    33    20    18   ar
    34    20     3   ar
    35    20    34    1
@<TRIPOS>MOLECULE
mol_668_akc_jm9804073
>649.sdf
 38 39 0 0 0
SMALL
GASTEIGER

@<TRIPOS>ATOM
      1 N           4.7171    1.1841   -5.7153 N.3     1  UNL1       -0.2034
      2 S           4.1205    0.1983   -4.4943 S.O2    1  UNL1        0.0588
      3 O           2.7403   -0.0890   -4.7965 O.2     1  UNL1       -0.1532
      4 O           5.1126   -0.8476   -4.3418 O.2     1  UNL1       -0.1532
      5 C           4.2143    1.2639   -3.1011 C.ar    1  UNL1        0.1424
      6 C           3.4752    2.4475   -3.1370 C.ar    1  UNL1        0.1705
      7 F           2.6975    2.6691   -4.2080 F       1  UNL1       -0.2015
      8 C           3.5872    3.4229   -2.1247 C.ar    1  UNL1        0.0679
      9 C           4.4581    3.0961   -1.0622 C.ar    1  UNL1       -0.0261
     10 C           5.2239    1.9126   -1.0191 C.ar    1  UNL1        0.0586
     11 C           5.0830    0.9812   -2.0484 C.ar    1  UNL1       -0.0208
     12 C           6.2270    1.6895    0.0874 C.3     1  UNL1        0.4175
     13 F           6.3021    2.7237    0.9705 F       1  UNL1       -0.1659
     14 F           5.9560    0.5814    0.8278 F       1  UNL1       -0.1659
     15 F           7.4911    1.5234   -0.3944 F       1  UNL1       -0.1659
     16 N           2.9342    4.6607   -2.1612 N.pl3   1  UNL1       -0.3276
     17 C           1.7921    4.8929   -3.0524 C.3     1  UNL1        0.0123
     18 C           2.2533    5.5153   -4.3720 C.3     1  UNL1       -0.0372
     19 C           2.5827    7.0049   -4.2818 C.3     1  UNL1       -0.0516
     20 C           3.6016    7.3836   -3.2073 C.3     1  UNL1       -0.0516
     21 C           3.0827    7.1550   -1.7880 C.3     1  UNL1       -0.0372
     22 C           3.3421    5.7442   -1.2584 C.3     1  UNL1        0.0123
     23 H           3.9809    1.4096   -6.3853 H       1  UNL1        0.1442
     24 H           5.5692    0.7974   -6.1172 H       1  UNL1        0.1442
     25 H           4.5732    3.7834   -0.2252 H       1  UNL1        0.0642
     26 H           5.6737    0.0655   -2.0456 H       1  UNL1        0.0643
     27 H           1.0546    5.5421   -2.5654 H       1  UNL1        0.0464
     28 H           1.2375    3.9659   -3.2373 H       1  UNL1        0.0464
     29 H           1.4520    5.3949   -5.1115 H       1  UNL1        0.0280
     30 H           3.1261    4.9843   -4.7696 H       1  UNL1        0.0280
     31 H           2.9683    7.3302   -5.2562 H       1  UNL1        0.0266
     32 H           1.6565    7.5691   -4.1159 H       1  UNL1        0.0266
     33 H           4.5482    6.8550   -3.3696 H       1  UNL1        0.0266
     34 H           3.8178    8.4530   -3.3216 H       1  UNL1        0.0266
     35 H           3.5963    7.8531   -1.1144 H       1  UNL1        0.0280
     36 H           2.0182    7.4073   -1.7203 H       1  UNL1        0.0280
     37 H           4.4212    5.6987   -1.0681 H       1  UNL1        0.0464
     38 H           2.8308    5.6206   -0.2966 H       1  UNL1        0.0464
@<TRIPOS>BOND
     1     1    23    1
     2     1    24    1
     3     2     1    1
     4     3     2    2
     5     4     2    2
     6     5     2    1
     7     6     5   ar
     8     7     6    1
     9     8     6   ar
    10     9     8   ar
    11     9    25    1
    12    10     9   ar
    13    11    10   ar
    14    11     5   ar
    15    11    26    1
    16    12    10    1
    17    13    12    1
    18    14    12    1
    19    15    12    1
    20    16     8    1
    21    17    16    1
    22    17    27    1
    23    17    28    1
    24    18    17    1
    25    18    29    1
    26    18    30    1
    27    19    18    1
    28    19    31    1
    29    19    32    1
    30    20    19    1
    31    20    33    1
    32    20    34    1
    33    21    20    1
    34    21    35    1
    35    21    36    1
    36    22    21    1
    37    22    16    1
    38    22    37    1
    39    22    38    1
@<TRIPOS>MOLECULE
mol_669_akc_jm9804073
>650.sdf
 44 46 0 0 0
SMALL
GASTEIGER

@<TRIPOS>ATOM
      1 N           1.1702    0.3999   -0.0131 N.3     1  UNL1       -0.2035
      2 S           2.7505   -0.2104    0.0062 S.O2    1  UNL1        0.0578
      3 O           2.5639   -1.6025   -0.3623 O.2     1  UNL1       -0.1532
      4 O           3.6191    0.6395   -0.7638 O.2     1  UNL1       -0.1532
      5 C           3.1587   -0.1218    1.7419 C.ar    1  UNL1        0.1282
      6 C           3.4830    1.0622    2.4589 C.ar    1  UNL1        0.0777
      7 N           3.5667    2.3515    1.9352 N.pl3   1  UNL1       -0.3270
      8 C           2.7784    3.0113    0.8909 C.3     1  UNL1        0.0123
      9 C           3.7489    3.9691    0.2090 C.3     1  UNL1       -0.0358
     10 C           4.6224    4.4098    1.3601 C.3     1  UNL1       -0.0358
     11 C           4.8221    3.1109    2.1418 C.3     1  UNL1        0.0123
     12 C           3.7858    0.8698    3.8730 C.ar    1  UNL1        0.0535
     13 C           3.7630   -0.4233    4.4491 C.ar    1  UNL1       -0.0271
     14 C           3.4792   -1.5646    3.7102 C.ar    1  UNL1        0.0585
     15 C           3.1802   -1.3996    2.3638 C.ar    1  UNL1       -0.0218
     16 C           3.4732   -2.9363    4.3346 C.3     1  UNL1        0.4175
     17 F           3.7503   -2.9323    5.6682 F       1  UNL1       -0.1659
     18 F           2.2656   -3.5538    4.2084 F       1  UNL1       -0.1659
     19 F           4.3833   -3.7731    3.7660 F       1  UNL1       -0.1659
     20 N           4.0325    1.9681    4.7215 N.pl3   1  UNL1       -0.3284
     21 C           4.8703    1.8690    5.9250 C.3     1  UNL1        0.0123
     22 C           3.9619    2.3268    7.0578 C.3     1  UNL1       -0.0358
     23 C           3.1091    3.3869    6.3829 C.3     1  UNL1       -0.0358
     24 C           2.8449    2.7938    4.9994 C.3     1  UNL1        0.0123
     25 H           0.5350   -0.3521   -0.2805 H       1  UNL1        0.1442
     26 H           0.9125    0.8186    0.8817 H       1  UNL1        0.1442
     27 H           1.9606    3.5667    1.3649 H       1  UNL1        0.0464
     28 H           2.3349    2.3889    0.1302 H       1  UNL1        0.0464
     29 H           4.3522    3.4376   -0.5364 H       1  UNL1        0.0281
     30 H           3.2403    4.7986   -0.2888 H       1  UNL1        0.0281
     31 H           5.5659    4.8563    1.0381 H       1  UNL1        0.0281
     32 H           4.0839    5.1448    1.9725 H       1  UNL1        0.0281
     33 H           5.6718    2.5497    1.7402 H       1  UNL1        0.0464
     34 H           5.0332    3.3808    3.1764 H       1  UNL1        0.0464
     35 H           3.9377   -0.5468    5.5155 H       1  UNL1        0.0642
     36 H           2.9625   -2.3001    1.7864 H       1  UNL1        0.0643
     37 H           5.7057    2.5700    5.8132 H       1  UNL1        0.0464
     38 H           5.3125    0.8879    6.1215 H       1  UNL1        0.0464
     39 H           3.3331    1.4978    7.4029 H       1  UNL1        0.0281
     40 H           4.5221    2.7161    7.9123 H       1  UNL1        0.0281
     41 H           2.1856    3.5990    6.9286 H       1  UNL1        0.0281
     42 H           3.6757    4.3215    6.2917 H       1  UNL1        0.0281
     43 H           1.9303    2.1880    5.0256 H       1  UNL1        0.0464
     44 H           2.7205    3.5911    4.2596 H       1  UNL1        0.0464
@<TRIPOS>BOND
     1     1    25    1
     2     1    26    1
     3     2     1    1
     4     3     2    2
     5     4     2    2
     6     5     2    1
     7     6     5   ar
     8     7     6    1
     9     8     7    1
    10     8    27    1
    11     8    28    1
    12     9     8    1
    13     9    29    1
    14     9    30    1
    15    10     9    1
    16    10    31    1
    17    10    32    1
    18    11    10    1
    19    11     7    1
    20    11    33    1
    21    11    34    1
    22    12     6   ar
    23    13    12   ar
    24    13    35    1
    25    14    13   ar
    26    15    14   ar
    27    15     5   ar
    28    15    36    1
    29    16    14    1
    30    17    16    1
    31    18    16    1
    32    19    16    1
    33    20    12    1
    34    21    20    1
    35    21    37    1
    36    21    38    1
    37    22    21    1
    38    22    39    1
    39    22    40    1
    40    23    22    1
    41    23    41    1
    42    23    42    1
    43    24    23    1
    44    24    20    1
    45    24    43    1
    46    24    44    1
@<TRIPOS>MOLECULE
mol_66_akc_ijms21186839
>65.sdf
 47 50 0 0 0
SMALL
GASTEIGER

@<TRIPOS>ATOM
      1 C           1.7614   -0.8856   -2.0832 C.3     1  UNL1        0.1346
      2 O           1.9921   -2.2712   -2.3183 O.3     1  UNL1       -0.4858
      3 C           1.1189   -2.9156   -3.1473 C.ar    1  UNL1        0.1211
      4 C           0.0190   -2.3474   -3.7917 C.ar    1  UNL1       -0.0199
      5 C          -0.7725   -3.1288   -4.6360 C.ar    1  UNL1       -0.0583
      6 C          -0.4742   -4.4718   -4.8376 C.ar    1  UNL1       -0.0615
      7 C           0.6147   -5.0452   -4.1860 C.ar    1  UNL1       -0.0583
      8 C           1.4073   -4.2678   -3.3414 C.ar    1  UNL1       -0.0199
      9 C           2.8094   -0.3384   -1.1936 C.ar    1  UNL1        0.1204
     10 C           4.0385    0.2191   -1.4839 C.ar    1  UNL1        0.0578
     11 N           4.5298    0.6526   -0.2655 N.ar    1  UNL1       -0.2191
     12 N           3.6703    0.2793    0.6955 N.ar    1  UNL1       -0.0604
     13 N           2.6223   -0.3122    0.1525 N.ar    1  UNL1       -0.1307
     14 C           5.7297    1.3763   -0.0251 C.ar    1  UNL1        0.0756
     15 C           5.8992    2.2859    1.0413 C.ar    1  UNL1        0.0200
     16 C           4.8827    2.6611    2.0504 C.2     1  UNL1        0.0547
     17 N           4.2581    1.7698    2.7358 N.2     1  UNL1       -0.1899
     18 N           3.2908    2.2140    3.5814 N.pl3   1  UNL1       -0.2378
     19 C           2.6707    1.2029    4.3662 C.ar    1  UNL1        0.0483
     20 C           3.1998   -0.0942    4.4528 C.ar    1  UNL1       -0.0391
     21 C           2.6744   -1.0367    5.3355 C.ar    1  UNL1       -0.0600
     22 C           1.6112   -0.6893    6.1647 C.ar    1  UNL1       -0.0616
     23 C           1.0647    0.5916    6.0881 C.ar    1  UNL1       -0.0600
     24 C           1.5907    1.5324    5.1964 C.ar    1  UNL1       -0.0391
     25 C           7.0926    3.0232    1.1421 C.ar    1  UNL1       -0.0511
     26 C           8.1256    2.8425    0.2226 C.ar    1  UNL1       -0.0610
     27 C           7.9731    1.9347   -0.8190 C.ar    1  UNL1       -0.0597
     28 C           6.7829    1.2154   -0.9501 C.ar    1  UNL1       -0.0356
     29 H           0.7829   -0.7439   -1.6036 H       1  UNL1        0.0764
     30 H           1.7790   -0.3319   -3.0296 H       1  UNL1        0.0764
     31 H          -0.2509   -1.3052   -3.6593 H       1  UNL1        0.0654
     32 H          -1.6311   -2.6806   -5.1415 H       1  UNL1        0.0619
     33 H          -1.0897   -5.0768   -5.4978 H       1  UNL1        0.0618
     34 H           0.8518   -6.0963   -4.3327 H       1  UNL1        0.0619
     35 H           2.2550   -4.7167   -2.8296 H       1  UNL1        0.0654
     36 H           4.5397    0.4049   -2.4192 H       1  UNL1        0.0851
     37 H           4.7319    3.7403    2.2304 H       1  UNL1        0.0852
     38 H           2.5841    2.8335    3.1814 H       1  UNL1        0.1744
     39 H           4.0297   -0.3814    3.8114 H       1  UNL1        0.0636
     40 H           3.1079   -2.0309    5.3800 H       1  UNL1        0.0618
     41 H           1.2208   -1.4114    6.8749 H       1  UNL1        0.0618
     42 H           0.2381    0.8651    6.7390 H       1  UNL1        0.0618
     43 H           1.1633    2.5306    5.1680 H       1  UNL1        0.0636
     44 H           7.2307    3.7387    1.9514 H       1  UNL1        0.0625
     45 H           9.0499    3.4068    0.3230 H       1  UNL1        0.0618
     46 H           8.7825    1.7817   -1.5292 H       1  UNL1        0.0618
     47 H           6.7164    0.4995   -1.7674 H       1  UNL1        0.0639
@<TRIPOS>BOND
     1     1    29    1
     2     1    30    1
     3     2     1    1
     4     3     2    1
     5     4     3   ar
     6     4    31    1
     7     5     4   ar
     8     5    32    1
     9     6     5   ar
    10     6    33    1
    11     7     6   ar
    12     7    34    1
    13     8     7   ar
    14     8     3   ar
    15     8    35    1
    16     9     1    1
    17    10     9   ar
    18    10    36    1
    19    11    10   ar
    20    12    11   ar
    21    13    12   ar
    22    13     9   ar
    23    14    11    1
    24    15    14   ar
    25    16    15    1
    26    16    37    1
    27    17    16    2
    28    18    17    1
    29    18    38    1
    30    19    18    1
    31    20    19   ar
    32    20    39    1
    33    21    20   ar
    34    21    40    1
    35    22    21   ar
    36    22    41    1
    37    23    22   ar
    38    23    42    1
    39    24    23   ar
    40    24    19   ar
    41    24    43    1
    42    25    15   ar
    43    25    44    1
    44    26    25   ar
    45    26    45    1
    46    27    26   ar
    47    27    46    1
    48    28    27   ar
    49    28    14   ar
    50    28    47    1
@<TRIPOS>MOLECULE
mol_670_akc_jm970232h
>651.sdf
 74 77 0 0 0
SMALL
GASTEIGER

@<TRIPOS>ATOM
      1 C           8.1131   -8.5466  -11.7078 C.3     1  UNL1       -0.0653
      2 C           7.5756   -7.3962  -10.8696 C.3     1  UNL1       -0.0559
      3 C           8.4408   -6.1456  -11.0222 C.3     1  UNL1       -0.0533
      4 C           7.9448   -4.9959  -10.1385 C.3     1  UNL1       -0.0516
      5 C           8.8784   -3.7866  -10.2513 C.3     1  UNL1       -0.0372
      6 C           8.4459   -2.5702   -9.4226 C.3     1  UNL1        0.0119
      7 N           8.4725   -2.8159   -7.9747 N.pl3   1  UNL1       -0.3329
      8 C           7.1982   -3.1777   -7.3532 C.3     1  UNL1        0.0007
      9 C           9.6385   -2.7508   -7.2159 C.ar    1  UNL1        0.0295
     10 C          10.9119   -2.5840   -7.7819 C.ar    1  UNL1       -0.0389
     11 C          12.1069   -2.6116   -7.0213 C.ar    1  UNL1       -0.0388
     12 C          12.0884   -2.7291   -5.6417 C.ar    1  UNL1        0.0315
     13 N          13.2197   -2.7882   -4.8111 N.pl3   1  UNL1       -0.3135
     14 C          14.5741   -2.3492   -4.7415 C.ar    1  UNL1        0.0499
     15 C          15.2251   -1.3381   -5.5347 C.ar    1  UNL1        0.0222
     16 C          14.8659   -0.7309   -6.7598 C.ar    1  UNL1       -0.0490
     17 C          15.8706   -0.2272   -7.6321 C.ar    1  UNL1       -0.0399
     18 C          17.2063   -0.1536   -7.2239 C.ar    1  UNL1        0.0313
     19 C          17.3951   -0.2514   -5.8551 C.ar    1  UNL1       -0.0146
     20 C          16.5029   -0.9501   -5.0824 C.ar    1  UNL1        0.0752
     21 N          17.1065   -1.4328   -4.0297 N.ar    1  UNL1       -0.2465
     22 C          16.7549   -2.6553   -3.7260 C.ar    1  UNL1        0.0752
     23 C          17.8272   -3.4679   -3.4448 C.ar    1  UNL1       -0.0146
     24 C          17.7014   -4.8472   -3.4231 C.ar    1  UNL1        0.0313
     25 C          16.3987   -5.3450   -3.3126 C.ar    1  UNL1       -0.0399
     26 C          15.2821   -4.5114   -3.5493 C.ar    1  UNL1       -0.0490
     27 C          15.4731   -3.1695   -3.9564 C.ar    1  UNL1        0.0222
     28 N          18.7888   -5.6894   -3.6837 N.pl3   1  UNL1       -0.3360
     29 C          19.2064   -6.5752   -2.6116 C.3     1  UNL1        0.0004
     30 C          19.8798   -5.1409   -4.5046 C.3     1  UNL1        0.0004
     31 N          18.3265   -0.0240   -8.0741 N.pl3   1  UNL1       -0.3360
     32 C          18.1351   -0.2804   -9.4972 C.3     1  UNL1        0.0004
     33 C          19.5504   -0.6936   -7.5525 C.3     1  UNL1        0.0004
     34 C          10.8175   -2.8479   -5.0561 C.ar    1  UNL1       -0.0388
     35 C           9.6320   -2.8709   -5.8201 C.ar    1  UNL1       -0.0389
     36 H           7.4875   -9.4355  -11.5797 H       1  UNL1        0.0230
     37 H           8.1225   -8.2875  -12.7713 H       1  UNL1        0.0230
     38 H           9.1341   -8.8056  -11.4090 H       1  UNL1        0.0230
     39 H           6.5455   -7.1775  -11.1733 H       1  UNL1        0.0263
     40 H           7.5468   -7.7041   -9.8180 H       1  UNL1        0.0263
     41 H           9.4774   -6.3875  -10.7566 H       1  UNL1        0.0265
     42 H           8.4437   -5.8273  -12.0719 H       1  UNL1        0.0265
     43 H           6.9282   -4.7128  -10.4366 H       1  UNL1        0.0266
     44 H           7.8995   -5.3382   -9.0991 H       1  UNL1        0.0266
     45 H           9.8918   -4.0950   -9.9747 H       1  UNL1        0.0280
     46 H           8.9238   -3.4772  -11.3035 H       1  UNL1        0.0280
     47 H           9.0745   -1.7064   -9.6724 H       1  UNL1        0.0463
     48 H           7.4362   -2.2713   -9.7332 H       1  UNL1        0.0463
     49 H           7.2678   -4.1493   -6.8526 H       1  UNL1        0.0428
     50 H           6.8791   -2.4154   -6.6355 H       1  UNL1        0.0428
     51 H           6.3946   -3.2681   -8.0947 H       1  UNL1        0.0428
     52 H          11.0267   -2.4653   -8.8544 H       1  UNL1        0.0637
     53 H          13.0466   -2.6046   -7.5610 H       1  UNL1        0.0637
     54 H          12.9550   -3.1350   -3.8883 H       1  UNL1        0.1522
     55 H          13.8514   -0.7711   -7.1347 H       1  UNL1        0.0625
     56 H          15.5819    0.0213   -8.6434 H       1  UNL1        0.0636
     57 H          18.3626   -0.0364   -5.4133 H       1  UNL1        0.0657
     58 H          18.8084   -3.0011   -3.4447 H       1  UNL1        0.0657
     59 H          16.2395   -6.4146   -3.2007 H       1  UNL1        0.0636
     60 H          14.3030   -4.9783   -3.6100 H       1  UNL1        0.0625
     61 H          19.8045   -7.3921   -3.0310 H       1  UNL1        0.0428
     62 H          19.8281   -6.0382   -1.8875 H       1  UNL1        0.0428
     63 H          18.3579   -7.0296   -2.0912 H       1  UNL1        0.0428
     64 H          19.4975   -4.7570   -5.4587 H       1  UNL1        0.0428
     65 H          20.4265   -4.3417   -3.9915 H       1  UNL1        0.0428
     66 H          20.6081   -5.9223   -4.7495 H       1  UNL1        0.0428
     67 H          19.0491   -0.0212  -10.0427 H       1  UNL1        0.0428
     68 H          17.9270   -1.3397   -9.6837 H       1  UNL1        0.0428
     69 H          17.3350    0.3409   -9.9262 H       1  UNL1        0.0428
     70 H          20.0005   -0.1297   -6.7278 H       1  UNL1        0.0428
     71 H          19.3386   -1.7190   -7.2188 H       1  UNL1        0.0428
     72 H          20.3254   -0.7669   -8.3239 H       1  UNL1        0.0428
     73 H          10.7181   -2.9453   -3.9763 H       1  UNL1        0.0637
     74 H           8.6966   -2.9880   -5.2768 H       1  UNL1        0.0637
@<TRIPOS>BOND
     1     1    36    1
     2     1    37    1
     3     1    38    1
     4     2     1    1
     5     2    39    1
     6     2    40    1
     7     3     2    1
     8     3    41    1
     9     3    42    1
    10     4     3    1
    11     4    43    1
    12     4    44    1
    13     5     4    1
    14     5    45    1
    15     5    46    1
    16     6     5    1
    17     6    47    1
    18     6    48    1
    19     7     6    1
    20     8     7    1
    21     8    49    1
    22     8    50    1
    23     8    51    1
    24     9     7    1
    25    10     9   ar
    26    10    52    1
    27    11    10   ar
    28    11    53    1
    29    12    11   ar
    30    13    12    1
    31    13    54    1
    32    14    13    1
    33    15    14   ar
    34    16    15   ar
    35    16    55    1
    36    17    16   ar
    37    17    56    1
    38    18    17   ar
    39    19    18   ar
    40    19    57    1
    41    20    19   ar
    42    20    15   ar
    43    21    20   ar
    44    22    21   ar
    45    23    22   ar
    46    23    58    1
    47    24    23   ar
    48    25    24   ar
    49    25    59    1
    50    26    25   ar
    51    26    60    1
    52    27    26   ar
    53    27    14   ar
    54    27    22   ar
    55    28    24    1
    56    29    28    1
    57    29    61    1
    58    29    62    1
    59    29    63    1
    60    30    28    1
    61    30    64    1
    62    30    65    1
    63    30    66    1
    64    31    18    1
    65    32    31    1
    66    32    67    1
    67    32    68    1
    68    32    69    1
    69    33    31    1
    70    33    70    1
    71    33    71    1
    72    33    72    1
    73    34    12   ar
    74    34    73    1
    75    35    34   ar
    76    35     9   ar
    77    35    74    1
@<TRIPOS>MOLECULE
mol_671_akc_00034983199611813083
>652.sdf
 90 89 0 0 0
SMALL
GASTEIGER

@<TRIPOS>ATOM
      1 C          16.2597  -14.0128  -15.7247 C.3     1  UNL1       -0.0653
      2 C          16.2220  -12.7721  -14.8422 C.3     1  UNL1       -0.0559
      3 C          14.9825  -12.7848  -13.9522 C.3     1  UNL1       -0.0533
      4 C          14.8910  -11.5545  -13.0415 C.3     1  UNL1       -0.0531
      5 C          13.6226  -11.6466  -12.1866 C.3     1  UNL1       -0.0531
      6 C          13.4228  -10.4601  -11.2360 C.3     1  UNL1       -0.0531
      7 C          12.1196  -10.6402  -10.4441 C.3     1  UNL1       -0.0531
      8 C          11.8479   -9.5794   -9.3649 C.3     1  UNL1       -0.0531
      9 C          11.7428   -8.1511   -9.9028 C.3     1  UNL1       -0.0530
     10 C          11.2251   -7.1141   -8.8902 C.3     1  UNL1       -0.0510
     11 C          11.9573   -6.9294   -7.5481 C.3     1  UNL1       -0.0293
     12 C          13.3436   -6.2869   -7.5860 C.3     1  UNL1        0.0522
     13 O          13.8122   -6.0156   -6.2511 O.3     1  UNL1       -0.3357
     14 C          14.6713   -7.0269   -5.6978 C.3     1  UNL1        0.2408
     15 N          15.0854   -6.5611   -4.3978 N.am    1  UNL1       -0.2671
     16 C          14.4949   -7.0420   -3.2472 C.2     1  UNL1        0.2166
     17 O          13.4194   -7.6206   -3.2108 O.2     1  UNL1       -0.2757
     18 C          15.3239   -6.8243   -1.9693 C.3     1  UNL1        0.0241
     19 C          15.4446   -5.3692   -1.5250 C.3     1  UNL1       -0.0448
     20 C          14.1025   -4.7499   -1.1241 C.3     1  UNL1       -0.0526
     21 C          14.2599   -3.2648   -0.7855 C.3     1  UNL1       -0.0531
     22 C          12.9149   -2.6028   -0.4752 C.3     1  UNL1       -0.0533
     23 C          13.0920   -1.1094   -0.1948 C.3     1  UNL1       -0.0559
     24 C          11.7678   -0.4264    0.1070 C.3     1  UNL1       -0.0653
     25 O          15.8255   -7.1088   -6.5076 O.3     1  UNL1       -0.2801
     26 P          17.0052   -8.1253   -6.1053 P.3     1  UNL1        0.2161
     27 O          17.2131   -8.1360   -4.6191 O.co2   1  UNL1       -0.4372
     28 O          16.9428   -9.3963   -6.9239 O.2     1  UNL1       -0.5171
     29 O          18.2488   -7.2545   -6.6701 O.3     1  UNL1       -0.3220
     30 C          18.6194   -7.3624   -8.0300 C.3     1  UNL1        0.0947
     31 C          20.1462   -7.3062   -8.1011 C.3     1  UNL1       -0.0064
     32 N          20.9001   -8.5816   -7.6318 N.4     1  UNL1        0.2385
     33 C          20.6575   -8.8468   -6.1431 C.3     1  UNL1       -0.0417
     34 C          20.4514   -9.8041   -8.4173 C.3     1  UNL1       -0.0417
     35 C          22.3879   -8.3593   -7.8490 C.3     1  UNL1       -0.0417
     36 H          17.1477  -14.0034  -16.3647 H       1  UNL1        0.0230
     37 H          16.2891  -14.9236  -15.1173 H       1  UNL1        0.0230
     38 H          15.3764  -14.0641  -16.3697 H       1  UNL1        0.0230
     39 H          17.1251  -12.7392  -14.2228 H       1  UNL1        0.0263
     40 H          16.2244  -11.8757  -15.4727 H       1  UNL1        0.0263
     41 H          14.0854  -12.8370  -14.5812 H       1  UNL1        0.0265
     42 H          14.9924  -13.6931  -13.3365 H       1  UNL1        0.0265
     43 H          15.7764  -11.4982  -12.3975 H       1  UNL1        0.0265
     44 H          14.8686  -10.6421  -13.6493 H       1  UNL1        0.0265
     45 H          12.7531  -11.7237  -12.8520 H       1  UNL1        0.0265
     46 H          13.6581  -12.5746  -11.6014 H       1  UNL1        0.0265
     47 H          14.2721  -10.3888  -10.5475 H       1  UNL1        0.0265
     48 H          13.3870   -9.5325  -11.8178 H       1  UNL1        0.0265
     49 H          11.2756  -10.6709  -11.1452 H       1  UNL1        0.0265
     50 H          12.1420  -11.6205   -9.9501 H       1  UNL1        0.0265
     51 H          10.9026   -9.8469   -8.8756 H       1  UNL1        0.0265
     52 H          12.6296   -9.6315   -8.6007 H       1  UNL1        0.0265
     53 H          12.7046   -7.8230  -10.3081 H       1  UNL1        0.0265
     54 H          11.0354   -8.1579  -10.7450 H       1  UNL1        0.0265
     55 H          11.1626   -6.1441   -9.4021 H       1  UNL1        0.0266
     56 H          10.1878   -7.3867   -8.6498 H       1  UNL1        0.0266
     57 H          11.3247   -6.2752   -6.9318 H       1  UNL1        0.0287
     58 H          12.0049   -7.8776   -7.0037 H       1  UNL1        0.0287
     59 H          14.0606   -6.8806   -8.1616 H       1  UNL1        0.0561
     60 H          13.2679   -5.3091   -8.0826 H       1  UNL1        0.0561
     61 H          14.1368   -7.9801   -5.6377 H       1  UNL1        0.1148
     62 H          16.0936   -6.5658   -4.3178 H       1  UNL1        0.1534
     63 H          14.8858   -7.4254   -1.1632 H       1  UNL1        0.0358
     64 H          16.3288   -7.2296   -2.1367 H       1  UNL1        0.0358
     65 H          16.1215   -5.3225   -0.6574 H       1  UNL1        0.0270
     66 H          15.9119   -4.7716   -2.3159 H       1  UNL1        0.0270
     67 H          13.3857   -4.8589   -1.9459 H       1  UNL1        0.0265
     68 H          13.6907   -5.2849   -0.2604 H       1  UNL1        0.0265
     69 H          14.9320   -3.1512    0.0742 H       1  UNL1        0.0265
     70 H          14.7288   -2.7482   -1.6314 H       1  UNL1        0.0265
     71 H          12.2342   -2.7373   -1.3248 H       1  UNL1        0.0265
     72 H          12.4526   -3.0913    0.3910 H       1  UNL1        0.0265
     73 H          13.7699   -0.9686    0.6551 H       1  UNL1        0.0263
     74 H          13.5544   -0.6221   -1.0614 H       1  UNL1        0.0263
     75 H          11.0754   -0.5198   -0.7357 H       1  UNL1        0.0230
     76 H          11.2941   -0.8605    0.9930 H       1  UNL1        0.0230
     77 H          11.9281    0.6400    0.2964 H       1  UNL1        0.0230
     78 H          18.2174   -8.2473   -8.5173 H       1  UNL1        0.0618
     79 H          18.2022   -6.4916   -8.5460 H       1  UNL1        0.0618
     80 H          20.4533   -7.1365   -9.1391 H       1  UNL1        0.0838
     81 H          20.5280   -6.4863   -7.4799 H       1  UNL1        0.0838
     82 H          19.6231   -9.1475   -5.9879 H       1  UNL1        0.0778
     83 H          21.3154   -9.6690   -5.8385 H       1  UNL1        0.0778
     84 H          20.9101   -7.9415   -5.5828 H       1  UNL1        0.0778
     85 H          20.5563   -9.5817   -9.4826 H       1  UNL1        0.0778
     86 H          21.0991  -10.6429   -8.1438 H       1  UNL1        0.0778
     87 H          19.4166  -10.0409   -8.1656 H       1  UNL1        0.0778
     88 H          22.5607   -8.1714   -8.9134 H       1  UNL1        0.0778
     89 H          22.7051   -7.4969   -7.2544 H       1  UNL1        0.0778
     90 H          22.9305   -9.2561   -7.5341 H       1  UNL1        0.0778
@<TRIPOS>UNITY_ATOM_ATTR
27 1
charge -1
32 1
charge 1
@<TRIPOS>BOND
     1     1    36    1
     2     1    37    1
     3     1    38    1
     4     2     1    1
     5     2    39    1
     6     2    40    1
     7     3     2    1
     8     3    41    1
     9     3    42    1
    10     4     3    1
    11     4    43    1
    12     4    44    1
    13     5     4    1
    14     5    45    1
    15     5    46    1
    16     6     5    1
    17     6    47    1
    18     6    48    1
    19     7     6    1
    20     7    49    1
    21     7    50    1
    22     8     7    1
    23     8    51    1
    24     8    52    1
    25     9     8    1
    26     9    53    1
    27     9    54    1
    28    10     9    1
    29    10    55    1
    30    10    56    1
    31    11    10    1
    32    11    57    1
    33    11    58    1
    34    12    11    1
    35    12    59    1
    36    12    60    1
    37    13    12    1
    38    15    14    1
    39    15    62    1
    40    16    15   am
    41    17    16    2
    42    18    16    1
    43    18    63    1
    44    18    64    1
    45    19    18    1
    46    19    65    1
    47    19    66    1
    48    20    19    1
    49    20    67    1
    50    20    68    1
    51    21    20    1
    52    21    69    1
    53    21    70    1
    54    22    21    1
    55    22    71    1
    56    22    72    1
    57    23    22    1
    58    23    73    1
    59    23    74    1
    60    24    23    1
    61    24    75    1
    62    24    76    1
    63    24    77    1
    64    25    14    1
    65    26    25    1
    66    27    26    1
    67    28    26    2
    68    29    26    1
    69    30    29    1
    70    30    78    1
    71    30    79    1
    72    31    30    1
    73    31    80    1
    74    31    81    1
    75    32    31    1
    76    33    32    1
    77    33    82    1
    78    33    83    1
    79    33    84    1
    80    34    32    1
    81    34    85    1
    82    34    86    1
    83    34    87    1
    84    35    32    1
    85    35    88    1
    86    35    89    1
    87    35    90    1
    88    14    61    1
    89    14    13    1
@<TRIPOS>MOLECULE
mol_673_akc_ptr2650070203
>654.sdf
 34 36 0 0 0
SMALL
GASTEIGER

@<TRIPOS>ATOM
      1 C           1.0468   -0.2227    0.0513 C.2     1  UNL1       -0.0992
      2 C           2.3835   -0.0807    0.0854 C.2     1  UNL1       -0.0724
      3 C           3.0285    0.6758    1.2252 C.3     1  UNL1       -0.0310
      4 C           3.0876    2.1817    0.9464 C.3     1  UNL1       -0.0389
      5 C           3.3220    2.5004   -0.5338 C.3     1  UNL1        0.0283
      6 C           4.5161    1.7326   -1.1012 C.3     1  UNL1        0.1177
      7 C           4.0702    0.4649   -1.8633 C.3     1  UNL1        0.0314
      8 C           3.2709   -0.5957   -1.0397 C.3     1  UNL1       -0.0029
      9 C           4.2764   -1.6646   -0.5733 C.3     1  UNL1        0.0173
     10 C           5.3347   -1.6033   -1.6308 C.2     1  UNL1        0.1597
     11 O           6.1936   -2.4524   -1.8078 O.2     1  UNL1       -0.2924
     12 C           5.2313   -0.3348   -2.4007 C.2     1  UNL1       -0.0049
     13 C           6.0559   -0.0428   -3.4118 C.2     1  UNL1       -0.0918
     14 O           5.1722    2.6436   -2.0052 O.3     1  UNL1       -0.4568
     15 C           4.8149    3.9314   -1.7648 C.2     1  UNL1        0.3353
     16 O           5.3278    4.9153   -2.2574 O.2     1  UNL1       -0.2453
     17 C           3.6550    3.9105   -0.8508 C.2     1  UNL1        0.0361
     18 C           2.9813    5.0128   -0.5070 C.2     1  UNL1       -0.0883
     19 H           0.5376   -0.7169   -0.7704 H       1  UNL1        0.0534
     20 H           0.4154    0.1860    0.8371 H       1  UNL1        0.0534
     21 H           4.0402    0.3002    1.4114 H       1  UNL1        0.0310
     22 H           2.4874    0.5011    2.1642 H       1  UNL1        0.0310
     23 H           2.1460    2.6429    1.2705 H       1  UNL1        0.0275
     24 H           3.8742    2.6248    1.5719 H       1  UNL1        0.0275
     25 H           2.4145    2.2679   -1.1057 H       1  UNL1        0.0387
     26 H           5.2532    1.4757   -0.3290 H       1  UNL1        0.0746
     27 H           3.4518    0.7779   -2.7171 H       1  UNL1        0.0392
     28 H           2.6183   -1.1015   -1.7707 H       1  UNL1        0.0357
     29 H           3.8129   -2.6556   -0.5555 H       1  UNL1        0.0351
     30 H           4.7398   -1.4528    0.3928 H       1  UNL1        0.0351
     31 H           6.8569   -0.7190   -3.7002 H       1  UNL1        0.0539
     32 H           5.9666    0.8876   -3.9645 H       1  UNL1        0.0539
     33 H           3.2897    5.9940   -0.8609 H       1  UNL1        0.0540
     34 H           2.0836    4.9611    0.1002 H       1  UNL1        0.0540
@<TRIPOS>BOND
     1     1    19    1
     2     1    20    1
     3     2     1    2
     4     3     2    1
     5     3    21    1
     6     3    22    1
     7     4     3    1
     8     4    23    1
     9     4    24    1
    10     5     4    1
    11     5    25    1
    12     6     5    1
    13     6    26    1
    14     7     6    1
    15     7    27    1
    16     8     7    1
    17     8     2    1
    18     8    28    1
    19     9     8    1
    20     9    29    1
    21     9    30    1
    22    10     9    1
    23    11    10    2
    24    12    10    1
    25    12     7    1
    26    13    12    2
    27    13    31    1
    28    13    32    1
    29    14     6    1
    30    15    14    1
    31    16    15    2
    32    17    15    1
    33    17     5    1
    34    18    17    2
    35    18    33    1
    36    18    34    1
@<TRIPOS>MOLECULE
mol_674_akc_aac375991
>655.sdf
 41 44 0 0 0
SMALL
GASTEIGER

@<TRIPOS>ATOM
      1 N          -1.3512   -3.6338   -2.8921 N.pl3   1  UNL1       -0.3580
      2 C          -2.0972   -2.8205   -2.0310 C.ar    1  UNL1        0.0247
      3 C          -3.1846   -3.3427   -1.3301 C.ar    1  UNL1       -0.0393
      4 C          -3.8698   -2.5683   -0.3844 C.ar    1  UNL1       -0.0388
      5 C          -3.4531   -1.2673   -0.0881 C.ar    1  UNL1        0.0315
      6 N          -4.0890   -0.4743    0.9053 N.pl3   1  UNL1       -0.3135
      7 C          -5.5075   -0.4651    1.1258 C.ar    1  UNL1        0.0499
      8 C          -6.0635   -1.2525    2.1664 C.ar    1  UNL1        0.0222
      9 C          -5.3016   -2.0357    3.0626 C.ar    1  UNL1       -0.0490
     10 C          -5.9152   -2.7515    4.0927 C.ar    1  UNL1       -0.0403
     11 C          -7.2999   -2.7438    4.2236 C.ar    1  UNL1        0.0266
     12 N          -7.9093   -3.3299    5.3388 N.pl3   1  UNL1       -0.3579
     13 C          -8.0413   -1.9361    3.3596 C.ar    1  UNL1       -0.0150
     14 C          -7.4583   -1.2069    2.3306 C.ar    1  UNL1        0.0752
     15 N          -8.2595   -0.4681    1.5527 N.ar    1  UNL1       -0.2465
     16 C          -7.7320    0.2916    0.5836 C.ar    1  UNL1        0.0752
     17 C          -8.5997    1.0763   -0.1666 C.ar    1  UNL1       -0.0150
     18 C          -8.1514    1.9699   -1.1413 C.ar    1  UNL1        0.0266
     19 N          -9.0664    2.6743   -1.9319 N.pl3   1  UNL1       -0.3579
     20 C          -6.7990    1.9725   -1.4591 C.ar    1  UNL1       -0.0403
     21 C          -5.9068    1.1770   -0.7376 C.ar    1  UNL1       -0.0490
     22 C          -6.3545    0.3381    0.3118 C.ar    1  UNL1        0.0222
     23 C          -2.2966   -0.7877   -0.7160 C.ar    1  UNL1       -0.0388
     24 C          -1.6270   -1.5566   -1.6754 C.ar    1  UNL1       -0.0393
     25 H          -0.8105   -3.1154   -3.5772 H       1  UNL1        0.1423
     26 H          -1.8928   -4.3796   -3.3178 H       1  UNL1        0.1423
     27 H          -3.5128   -4.3632   -1.5101 H       1  UNL1        0.0636
     28 H          -4.7175   -3.0093    0.1327 H       1  UNL1        0.0637
     29 H          -3.7730    0.4901    0.8225 H       1  UNL1        0.1522
     30 H          -4.2177   -2.0667    2.9743 H       1  UNL1        0.0625
     31 H          -5.2975   -3.3056    4.7946 H       1  UNL1        0.0636
     32 H          -8.8980   -3.5262    5.2134 H       1  UNL1        0.1423
     33 H          -7.4033   -4.1221    5.7200 H       1  UNL1        0.1423
     34 H          -9.1191   -1.8539    3.4919 H       1  UNL1        0.0657
     35 H          -9.6644    0.9969    0.0402 H       1  UNL1        0.0657
     36 H          -8.6855    3.5168   -2.3510 H       1  UNL1        0.1423
     37 H          -9.9566    2.8450   -1.4726 H       1  UNL1        0.1423
     38 H          -6.4245    2.5927   -2.2688 H       1  UNL1        0.0636
     39 H          -4.8564    1.2142   -1.0116 H       1  UNL1        0.0625
     40 H          -1.9006    0.1939   -0.4704 H       1  UNL1        0.0637
     41 H          -0.7291   -1.1579   -2.1395 H       1  UNL1        0.0636
@<TRIPOS>BOND
     1     1    25    1
     2     1    26    1
     3     2     1    1
     4     3     2   ar
     5     3    27    1
     6     4     3   ar
     7     4    28    1
     8     5     4   ar
     9     6     5    1
    10     6    29    1
    11     7     6    1
    12     8     7   ar
    13     9     8   ar
    14     9    30    1
    15    10     9   ar
    16    10    31    1
    17    11    10   ar
    18    12    11    1
    19    12    32    1
    20    12    33    1
    21    13    11   ar
    22    13    34    1
    23    14    13   ar
    24    14     8   ar
    25    15    14   ar
    26    16    15   ar
    27    17    16   ar
    28    17    35    1
    29    18    17   ar
    30    19    18    1
    31    19    36    1
    32    19    37    1
    33    20    18   ar
    34    20    38    1
    35    21    20   ar
    36    21    39    1
    37    22    21   ar
    38    22     7   ar
    39    22    16   ar
    40    23     5   ar
    41    23    40    1
    42    24    23   ar
    43    24     2   ar
    44    24    41    1
@<TRIPOS>MOLECULE
mol_675_akc_aac375991
>656.sdf
 55 58 0 0 0
SMALL
GASTEIGER

@<TRIPOS>ATOM
      1 C           1.2485    1.2538   -5.2009 C.3     1  UNL1       -0.0653
      2 C           2.7687    1.2827   -5.2563 C.3     1  UNL1       -0.0559
      3 C           3.3833    1.5309   -3.8774 C.3     1  UNL1       -0.0533
      4 C           4.9157    1.5491   -3.9391 C.3     1  UNL1       -0.0517
      5 C           5.5280    1.8130   -2.5586 C.3     1  UNL1       -0.0375
      6 C           7.0623    1.7336   -2.5438 C.3     1  UNL1        0.0091
      7 N           7.6456    2.8406   -3.2947 N.pl3   1  UNL1       -0.3438
      8 C           9.0248    3.0724   -3.2420 C.ar    1  UNL1        0.0272
      9 C           9.9802    2.1122   -2.8947 C.ar    1  UNL1       -0.0391
     10 C          11.3631    2.3963   -2.9267 C.ar    1  UNL1       -0.0388
     11 C          11.8340    3.6339   -3.3601 C.ar    1  UNL1        0.0315
     12 N          13.1930    3.9784   -3.5085 N.pl3   1  UNL1       -0.3135
     13 C          14.4190    3.3345   -3.1681 C.ar    1  UNL1        0.0499
     14 C          14.8034    2.0796   -3.7207 C.ar    1  UNL1        0.0221
     15 C          14.0357    1.3148   -4.6368 C.ar    1  UNL1       -0.0508
     16 C          14.4863    0.0870   -5.1255 C.ar    1  UNL1       -0.0610
     17 C          15.7339   -0.3834   -4.7473 C.ar    1  UNL1       -0.0597
     18 C          16.5176    0.3791   -3.8850 C.ar    1  UNL1       -0.0357
     19 C          16.0777    1.5894   -3.3677 C.ar    1  UNL1        0.0735
     20 N          16.9256    2.2407   -2.5646 N.ar    1  UNL1       -0.2466
     21 C          16.5633    3.4137   -2.0375 C.ar    1  UNL1        0.0735
     22 C          17.4864    4.0540   -1.2194 C.ar    1  UNL1       -0.0357
     23 C          17.2070    5.2735   -0.6039 C.ar    1  UNL1       -0.0597
     24 C          15.9711    5.8668   -0.8026 C.ar    1  UNL1       -0.0610
     25 C          15.0329    5.2433   -1.6281 C.ar    1  UNL1       -0.0508
     26 C          15.3141    4.0112   -2.2791 C.ar    1  UNL1        0.0221
     27 C          10.8765    4.5779   -3.7593 C.ar    1  UNL1       -0.0388
     28 C           9.5034    4.3036   -3.7019 C.ar    1  UNL1       -0.0391
     29 H           0.8364    1.0815   -6.2005 H       1  UNL1        0.0230
     30 H           0.8934    0.4515   -4.5461 H       1  UNL1        0.0230
     31 H           0.8494    2.2030   -4.8295 H       1  UNL1        0.0230
     32 H           3.1296    0.3290   -5.6584 H       1  UNL1        0.0263
     33 H           3.0860    2.0690   -5.9510 H       1  UNL1        0.0263
     34 H           3.0185    2.4861   -3.4803 H       1  UNL1        0.0265
     35 H           3.0532    0.7470   -3.1845 H       1  UNL1        0.0265
     36 H           5.2744    0.5860   -4.3217 H       1  UNL1        0.0266
     37 H           5.2424    2.3215   -4.6451 H       1  UNL1        0.0266
     38 H           5.2015    2.7961   -2.1963 H       1  UNL1        0.0280
     39 H           5.1407    1.0691   -1.8512 H       1  UNL1        0.0280
     40 H           7.3935    1.7806   -1.5000 H       1  UNL1        0.0461
     41 H           7.3810    0.7740   -2.9654 H       1  UNL1        0.0461
     42 H           7.1205    3.7068   -3.1992 H       1  UNL1        0.1461
     43 H           9.6764    1.1144   -2.5934 H       1  UNL1        0.0637
     44 H          12.0554    1.6168   -2.6212 H       1  UNL1        0.0637
     45 H          13.3216    4.9808   -3.5999 H       1  UNL1        0.1522
     46 H          13.0709    1.6780   -4.9795 H       1  UNL1        0.0625
     47 H          13.8662   -0.4916   -5.8049 H       1  UNL1        0.0618
     48 H          16.1072   -1.3304   -5.1273 H       1  UNL1        0.0618
     49 H          17.5091    0.0229   -3.6110 H       1  UNL1        0.0639
     50 H          18.4561    3.5871   -1.0568 H       1  UNL1        0.0639
     51 H          17.9519    5.7463    0.0311 H       1  UNL1        0.0618
     52 H          15.7323    6.8095   -0.3165 H       1  UNL1        0.0618
     53 H          14.0658    5.7242   -1.7448 H       1  UNL1        0.0625
     54 H          11.1871    5.5506   -4.1318 H       1  UNL1        0.0637
     55 H           8.8071    5.0689   -4.0338 H       1  UNL1        0.0637
@<TRIPOS>BOND
     1     1    29    1
     2     1    30    1
     3     1    31    1
     4     2     1    1
     5     2    32    1
     6     2    33    1
     7     3     2    1
     8     3    34    1
     9     3    35    1
    10     4     3    1
    11     4    36    1
    12     4    37    1
    13     5     4    1
    14     5    38    1
    15     5    39    1
    16     6     5    1
    17     6    40    1
    18     6    41    1
    19     7     6    1
    20     7    42    1
    21     8     7    1
    22     9     8   ar
    23     9    43    1
    24    10     9   ar
    25    10    44    1
    26    11    10   ar
    27    12    11    1
    28    12    45    1
    29    13    12    1
    30    14    13   ar
    31    15    14   ar
    32    15    46    1
    33    16    15   ar
    34    16    47    1
    35    17    16   ar
    36    17    48    1
    37    18    17   ar
    38    18    49    1
    39    19    18   ar
    40    19    14   ar
    41    20    19   ar
    42    21    20   ar
    43    22    21   ar
    44    22    50    1
    45    23    22   ar
    46    23    51    1
    47    24    23   ar
    48    24    52    1
    49    25    24   ar
    50    25    53    1
    51    26    25   ar
    52    26    13   ar
    53    26    21   ar
    54    27    11   ar
    55    27    54    1
    56    28    27   ar
    57    28     8   ar
    58    28    55    1
@<TRIPOS>MOLECULE
mol_676_akc_0035_92039390499_g
>657.sdf
 90 89 0 0 0
SMALL
GASTEIGER

@<TRIPOS>ATOM
      1 C          22.8547   32.5073    2.7101 C.3     1  UNL1       -0.0653
      2 C          21.8545   31.3680    2.8168 C.3     1  UNL1       -0.0559
      3 C          22.5289   30.0822    3.2877 C.3     1  UNL1       -0.0533
      4 C          21.5243   28.9359    3.3989 C.3     1  UNL1       -0.0531
      5 C          22.2067   27.6543    3.8729 C.3     1  UNL1       -0.0531
      6 C          21.2059   26.5065    3.9847 C.3     1  UNL1       -0.0531
      7 C          21.8899   25.2272    4.4621 C.3     1  UNL1       -0.0531
      8 C          20.8862   24.0832    4.5725 C.3     1  UNL1       -0.0531
      9 C          21.5620   22.8009    5.0514 C.3     1  UNL1       -0.0531
     10 C          20.5485   21.6656    5.1570 C.3     1  UNL1       -0.0531
     11 C          21.2087   20.3772    5.6355 C.3     1  UNL1       -0.0531
     12 C          20.1851   19.2484    5.7346 C.3     1  UNL1       -0.0531
     13 C          20.8433   17.9571    6.2086 C.3     1  UNL1       -0.0530
     14 C          19.8278   16.8203    6.3093 C.3     1  UNL1       -0.0523
     15 C          20.5127   15.5403    6.7835 C.3     1  UNL1       -0.0440
     16 C          19.5292   14.3795    6.8895 C.3     1  UNL1       -0.0063
     17 S          20.4552   12.9179    7.4359 S.3     1  UNL1       -0.1603
     18 C          19.0777   11.7222    7.5730 C.3     1  UNL1        0.0007
     19 C          19.5798   10.3335    7.9965 C.3     1  UNL1        0.0152
     20 C          18.4250    9.3189    8.0542 C.3     1  UNL1        0.0530
     21 O          17.7049    9.3161    6.8172 O.3     1  UNL1       -0.3826
     22 C          16.6998    8.3090    6.8193 C.3     1  UNL1        0.0365
     23 C          20.2869   10.3523    9.3556 C.3     1  UNL1        0.0605
     24 O          20.8352    9.0729    9.6036 O.3     1  UNL1       -0.3271
     25 P          21.6567    8.9771   11.1231 P.3     1  UNL1        0.2127
     26 O          20.3860    8.4843   11.8130 O.2     1  UNL1       -0.5172
     27 O          22.6967    8.0088   10.5495 O.co2   1  UNL1       -0.4373
     28 O          22.4783    8.8812   12.6426 O.3     1  UNL1       -0.3221
     29 C          23.5991    9.7373   12.6825 C.3     1  UNL1        0.0947
     30 C          24.3142    9.5510   14.0131 C.3     1  UNL1       -0.0064
     31 N          24.8725    8.1276   14.2629 N.4     1  UNL1        0.2385
     32 C          23.7271    7.1020   14.3240 C.3     1  UNL1       -0.0417
     33 C          25.8189    7.7127   13.1491 C.3     1  UNL1       -0.0417
     34 C          25.5986    8.1385   15.5917 C.3     1  UNL1       -0.0417
     35 H          22.3548   33.4206    2.3724 H       1  UNL1        0.0230
     36 H          23.3197   32.7122    3.6794 H       1  UNL1        0.0230
     37 H          23.6460   32.2673    1.9929 H       1  UNL1        0.0230
     38 H          21.0592   31.6499    3.5166 H       1  UNL1        0.0263
     39 H          21.3852   31.2070    1.8394 H       1  UNL1        0.0263
     40 H          23.3253   29.8048    2.5860 H       1  UNL1        0.0265
     41 H          23.0028   30.2503    4.2629 H       1  UNL1        0.0265
     42 H          20.7275   29.2103    4.1009 H       1  UNL1        0.0265
     43 H          21.0518   28.7634    2.4242 H       1  UNL1        0.0265
     44 H          23.0040   27.3795    3.1716 H       1  UNL1        0.0265
     45 H          22.6786   27.8266    4.8479 H       1  UNL1        0.0265
     46 H          20.4071   26.7802    4.6847 H       1  UNL1        0.0265
     47 H          20.7354   26.3308    3.0096 H       1  UNL1        0.0265
     48 H          22.6884   24.9517    3.7625 H       1  UNL1        0.0265
     49 H          22.3598   25.4014    5.4378 H       1  UNL1        0.0265
     50 H          20.0870   24.3599    5.2706 H       1  UNL1        0.0265
     51 H          20.4172   23.9089    3.5965 H       1  UNL1        0.0265
     52 H          22.3609   22.5202    4.3541 H       1  UNL1        0.0265
     53 H          22.0300   22.9712    6.0287 H       1  UNL1        0.0265
     54 H          19.7489   21.9482    5.8525 H       1  UNL1        0.0265
     55 H          20.0810   21.4968    4.1790 H       1  UNL1        0.0265
     56 H          22.0093   20.0907    4.9416 H       1  UNL1        0.0265
     57 H          21.6752   20.5412    6.6153 H       1  UNL1        0.0265
     58 H          19.3870   19.5328    6.4317 H       1  UNL1        0.0265
     59 H          19.7175   19.0858    4.7553 H       1  UNL1        0.0265
     60 H          21.6446   17.6756    5.5136 H       1  UNL1        0.0265
     61 H          21.3101   18.1231    7.1873 H       1  UNL1        0.0265
     62 H          19.0297   17.0947    7.0092 H       1  UNL1        0.0266
     63 H          19.3618   16.6499    5.3321 H       1  UNL1        0.0266
     64 H          21.3181   15.2880    6.0808 H       1  UNL1        0.0273
     65 H          20.9793   15.7275    7.7600 H       1  UNL1        0.0273
     66 H          18.7431   14.6089    7.6159 H       1  UNL1        0.0376
     67 H          19.0679   14.1747    5.9185 H       1  UNL1        0.0376
     68 H          18.3514   12.1024    8.2987 H       1  UNL1        0.0380
     69 H          18.5919   11.6697    6.5935 H       1  UNL1        0.0380
     70 H          20.2805    9.9724    7.2304 H       1  UNL1        0.0353
     71 H          18.8189    8.3120    8.2395 H       1  UNL1        0.0563
     72 H          17.7328    9.5769    8.8644 H       1  UNL1        0.0563
     73 H          17.1489    7.3177    6.9363 H       1  UNL1        0.0523
     74 H          15.9771    8.4920    7.6207 H       1  UNL1        0.0523
     75 H          16.1756    8.3431    5.8611 H       1  UNL1        0.0523
     76 H          21.1142   11.0667    9.3800 H       1  UNL1        0.0568
     77 H          19.5874   10.6134   10.1574 H       1  UNL1        0.0568
     78 H          24.2675    9.5524   11.8371 H       1  UNL1        0.0618
     79 H          23.2464   10.7718   12.6040 H       1  UNL1        0.0618
     80 H          25.1648   10.2398   14.0762 H       1  UNL1        0.0838
     81 H          23.6301    9.7607   14.8443 H       1  UNL1        0.0838
     82 H          23.3848    6.8676   13.3147 H       1  UNL1        0.0778
     83 H          24.1242    6.1882   14.7769 H       1  UNL1        0.0778
     84 H          22.9280    7.5094   14.9500 H       1  UNL1        0.0778
     85 H          26.5896    8.4824   13.0500 H       1  UNL1        0.0778
     86 H          26.2737    6.7564   13.4255 H       1  UNL1        0.0778
     87 H          25.2612    7.6008   12.2161 H       1  UNL1        0.0778
     88 H          26.4109    8.8695   15.5385 H       1  UNL1        0.0778
     89 H          24.8877    8.4168   16.3756 H       1  UNL1        0.0778
     90 H          26.0038    7.1395   15.7823 H       1  UNL1        0.0778
@<TRIPOS>UNITY_ATOM_ATTR
27 1
charge -1
31 1
charge 1
@<TRIPOS>BOND
     1     1    35    1
     2     1    36    1
     3     1    37    1
     4     2     1    1
     5     2    38    1
     6     2    39    1
     7     3     2    1
     8     3    40    1
     9     3    41    1
    10     4     3    1
    11     4    42    1
    12     4    43    1
    13     5     4    1
    14     5    44    1
    15     5    45    1
    16     6     5    1
    17     6    46    1
    18     6    47    1
    19     7     6    1
    20     7    48    1
    21     7    49    1
    22     8     7    1
    23     8    50    1
    24     8    51    1
    25     9     8    1
    26     9    52    1
    27     9    53    1
    28    10     9    1
    29    10    54    1
    30    10    55    1
    31    11    10    1
    32    11    56    1
    33    11    57    1
    34    12    11    1
    35    12    58    1
    36    12    59    1
    37    13    12    1
    38    13    60    1
    39    13    61    1
    40    14    13    1
    41    14    62    1
    42    14    63    1
    43    15    14    1
    44    15    64    1
    45    15    65    1
    46    16    15    1
    47    16    66    1
    48    16    67    1
    49    17    16    1
    50    18    17    1
    51    18    68    1
    52    18    69    1
    53    20    19    1
    54    20    71    1
    55    20    72    1
    56    21    20    1
    57    22    21    1
    58    22    73    1
    59    22    74    1
    60    22    75    1
    61    23    19    1
    62    23    76    1
    63    23    77    1
    64    24    23    1
    65    25    24    1
    66    26    25    2
    67    27    25    1
    68    28    25    1
    69    29    28    1
    70    29    78    1
    71    29    79    1
    72    30    29    1
    73    30    80    1
    74    30    81    1
    75    31    30    1
    76    32    31    1
    77    32    82    1
    78    32    83    1
    79    32    84    1
    80    33    31    1
    81    33    85    1
    82    33    86    1
    83    33    87    1
    84    34    31    1
    85    34    88    1
    86    34    89    1
    87    34    90    1
    88    19    70    1
    89    19    18    1
@<TRIPOS>MOLECULE
mol_677_akc_jac306827
>658.sdf
 50 52 0 0 0
SMALL
GASTEIGER

@<TRIPOS>ATOM
      1 C           2.0616    0.3351    1.6186 C.3     1  UNL1       -0.0598
      2 C           2.4004    0.1601    0.1254 C.3     1  UNL1       -0.0349
      3 C           1.1104    0.4061   -0.6910 C.3     1  UNL1       -0.0598
      4 C           3.4020    1.2687   -0.2654 C.3     1  UNL1       -0.0598
      5 C           2.9823   -1.2691   -0.2019 C.3     1  UNL1       -0.0361
      6 C           1.9872   -2.4043    0.1131 C.3     1  UNL1       -0.0495
      7 C           2.5309   -3.7860   -0.2329 C.3     1  UNL1       -0.0496
      8 C           3.8709   -4.0823    0.4518 C.3     1  UNL1       -0.0368
      9 C           4.8734   -2.9610    0.1443 C.3     1  UNL1       -0.0496
     10 C           4.3305   -1.5715    0.4871 C.3     1  UNL1       -0.0495
     11 C           4.4601   -5.4484    0.0220 C.3     1  UNL1       -0.0176
     12 C           3.5591   -6.6185    0.3474 C.2     1  UNL1        0.0453
     13 C           3.5626   -7.3402    1.4835 C.2     1  UNL1        0.1316
     14 C           2.6054   -8.4410    1.7351 C.ar    1  UNL1        0.0277
     15 C           2.7155   -9.2639    2.8665 C.ar    1  UNL1       -0.0504
     16 C           1.7766  -10.2688    3.1239 C.ar    1  UNL1       -0.0611
     17 C           0.7009  -10.4623    2.2597 C.ar    1  UNL1       -0.0610
     18 C           0.5710   -9.6590    1.1311 C.ar    1  UNL1       -0.0501
     19 C           1.5259   -8.6662    0.8725 C.ar    1  UNL1        0.0362
     20 C           1.3947   -7.8351   -0.3332 C.2     1  UNL1        0.2334
     21 O           0.3669   -7.8026   -0.9884 O.2     1  UNL1       -0.2832
     22 C           2.6035   -7.0113   -0.7321 C.2     1  UNL1        0.2325
     23 O           2.7617   -6.6798   -1.8967 O.2     1  UNL1       -0.2834
     24 O           4.4341   -7.1046    2.5285 O.2     1  UNL1       -0.5058
     25 H           1.6336    1.3270    1.8070 H       1  UNL1        0.0235
     26 H           1.3228   -0.3957    1.9604 H       1  UNL1        0.0235
     27 H           2.9506    0.2436    2.2499 H       1  UNL1        0.0235
     28 H           0.7376    1.4264   -0.5456 H       1  UNL1        0.0235
     29 H           1.2906    0.2685   -1.7629 H       1  UNL1        0.0235
     30 H           0.3011   -0.2675   -0.3938 H       1  UNL1        0.0235
     31 H           4.3505    1.1775    0.2715 H       1  UNL1        0.0235
     32 H           3.6139    1.2520   -1.3400 H       1  UNL1        0.0235
     33 H           3.0018    2.2609   -0.0231 H       1  UNL1        0.0235
     34 H           3.1686   -1.2971   -1.2862 H       1  UNL1        0.0306
     35 H           1.7219   -2.3957    1.1758 H       1  UNL1        0.0268
     36 H           1.0588   -2.2705   -0.4510 H       1  UNL1        0.0268
     37 H           1.7778   -4.5211    0.0726 H       1  UNL1        0.0268
     38 H           2.6396   -3.8677   -1.3211 H       1  UNL1        0.0268
     39 H           3.7054   -4.1009    1.5382 H       1  UNL1        0.0304
     40 H           5.7982   -3.1285    0.7103 H       1  UNL1        0.0268
     41 H           5.1459   -2.9862   -0.9184 H       1  UNL1        0.0268
     42 H           5.0874   -0.8410    0.1828 H       1  UNL1        0.0268
     43 H           4.2276   -1.4943    1.5750 H       1  UNL1        0.0268
     44 H           4.6867   -5.4292   -1.0512 H       1  UNL1        0.0318
     45 H           5.4376   -5.5841    0.5012 H       1  UNL1        0.0318
     46 H           3.5359   -9.1283    3.5691 H       1  UNL1        0.0625
     47 H           1.8822  -10.8937    4.0074 H       1  UNL1        0.0618
     48 H          -0.0329  -11.2380    2.4651 H       1  UNL1        0.0618
     49 H          -0.2687   -9.8073    0.4531 H       1  UNL1        0.0625
     50 H           5.0828   -6.4255    2.2847 H       1  UNL1        0.2922
@<TRIPOS>BOND
     1     1    25    1
     2     1    26    1
     3     1    27    1
     4     2     1    1
     5     3     2    1
     6     3    28    1
     7     3    29    1
     8     3    30    1
     9     4     2    1
    10     4    31    1
    11     4    32    1
    12     4    33    1
    13     5     2    1
    14     5    34    1
    15     6     5    1
    16     6    35    1
    17     6    36    1
    18     7     6    1
    19     7    37    1
    20     7    38    1
    21     8     7    1
    22     8    39    1
    23     9     8    1
    24     9    40    1
    25     9    41    1
    26    10     9    1
    27    10     5    1
    28    10    42    1
    29    10    43    1
    30    11     8    1
    31    11    44    1
    32    11    45    1
    33    12    11    1
    34    13    12    2
    35    14    13    1
    36    15    14   ar
    37    15    46    1
    38    16    15   ar
    39    16    47    1
    40    17    16   ar
    41    17    48    1
    42    18    17   ar
    43    18    49    1
    44    19    18   ar
    45    19    14   ar
    46    20    19    1
    47    21    20    2
    48    22    20    1
    49    22    12    1
    50    23    22    2
    51    24    13    1
    52    24    50    1
@<TRIPOS>MOLECULE
mol_678_akc_1306154
>659.sdf
 46 49 0 0 0
SMALL
GASTEIGER

@<TRIPOS>ATOM
      1 C           0.6623    0.0661   -1.5126 C.ar    1  UNL1       -0.0514
      2 C          -0.2689   -0.9544   -1.2869 C.ar    1  UNL1        0.0159
      3 C          -0.8702   -1.0731   -0.0294 C.ar    1  UNL1        0.2732
      4 C          -0.5475   -0.1827    1.0033 C.ar    1  UNL1        0.0159
      5 C           0.3816    0.8354    0.7649 C.ar    1  UNL1       -0.0514
      6 C           0.9864    0.9781   -0.4932 C.ar    1  UNL1       -0.0368
      7 C           2.0040    2.0751   -0.7347 C.3     1  UNL1        0.0249
      8 S           3.6755    1.5239   -0.2817 S.3     1  UNL1       -0.0990
      9 C           4.6195    2.9566   -0.7122 C.ar    1  UNL1        0.1279
     10 N           4.0825    4.1998   -0.6308 N.ar    1  UNL1       -0.2269
     11 C           4.8874    5.2469   -0.9153 C.ar    1  UNL1        0.1196
     12 N           6.1821    5.2323   -1.2905 N.ar    1  UNL1       -0.2160
     13 C           6.6585    3.9775   -1.3525 C.ar    1  UNL1        0.1666
     14 C           5.9597    2.8052   -1.0902 C.ar    1  UNL1        0.1397
     15 N           6.7748    1.7072   -1.2696 N.ar    1  UNL1       -0.2313
     16 C           7.9389    2.2027   -1.6283 C.ar    1  UNL1        0.1004
     17 N           7.9282    3.5723   -1.6729 N.ar    1  UNL1       -0.2855
     18 C1*         9.0569    4.4306   -1.9892 C.3     1  UNL1        0.1667
     19 C2*         9.9770    4.6978   -0.7921 C.3     1  UNL1        0.1285
     20 C3*        11.3305    4.8644   -1.4674 C.3     1  UNL1        0.1135
     21 C4*        11.2565    3.8982   -2.6473 C.3     1  UNL1        0.1126
     22 O4*         9.8607    3.7808   -3.0091 O.3     1  UNL1       -0.3457
     23 C5*        11.8232    2.5092   -2.3200 C.3     1  UNL1        0.0730
     24 O5*        11.2856    2.0085   -1.1014 O.3     1  UNL1       -0.3924
     25 O3*        11.4365    6.2276   -1.9316 O.3     1  UNL1       -0.3864
     26 O2*         9.6305    5.8518   -0.0249 O.3     1  UNL1       -0.3847
     27 N          -1.8514   -2.1421    0.2163 N.pl3   1  UNL1        0.0796
     28 O          -2.1317   -2.8881   -0.7326 O.2     1  UNL1        0.0414
     29 O          -2.3452   -2.2249    1.3495 O.co2   1  UNL1       -0.5760
     30 H           1.1373    0.1445   -2.4888 H       1  UNL1        0.0623
     31 H          -0.5001   -1.6476   -2.0926 H       1  UNL1        0.0685
     32 H          -0.9992   -0.2673    1.9872 H       1  UNL1        0.0685
     33 H           0.6379    1.5183    1.5753 H       1  UNL1        0.0623
     34 H           1.9849    2.3672   -1.7907 H       1  UNL1        0.0429
     35 H           1.7242    2.9583   -0.1497 H       1  UNL1        0.0429
     36 H           4.4334    6.2309   -0.8282 H       1  UNL1        0.1048
     37 H           8.8187    1.6193   -1.8637 H       1  UNL1        0.1030
     38 H1*         8.6621    5.3568   -2.4225 H       1  UNL1        0.0866
     39 H2*         9.9868    3.8458   -0.1079 H       1  UNL1        0.0665
     40 H3*        12.1719    4.6931   -0.7915 H       1  UNL1        0.0647
     41 H4*        11.7764    4.2903   -3.5285 H       1  UNL1        0.0647
     42 H5*1       11.5780    1.7988   -3.1153 H       1  UNL1        0.0584
     43 H5*2       12.9105    2.5650   -2.2063 H       1  UNL1        0.0584
     44 H5*        11.5976    1.0905   -0.9992 H       1  UNL1        0.2095
     45 H3*        12.2626    6.3077   -2.4364 H       1  UNL1        0.2100
     46 H2*        10.2366    6.5634   -0.3165 H       1  UNL1        0.2101
@<TRIPOS>UNITY_ATOM_ATTR
27 1
charge 1
29 1
charge -1
@<TRIPOS>BOND
     1     1    30    1
     2     2     1   ar
     3     2    31    1
     4     3     2   ar
     5     4     3   ar
     6     4    32    1
     7     5     4   ar
     8     5    33    1
     9     6     5   ar
    10     6     1   ar
    11     7     6    1
    12     7    34    1
    13     7    35    1
    14     8     7    1
    15     9     8    1
    16    10     9   ar
    17    11    10   ar
    18    11    36    1
    19    12    11   ar
    20    13    12   ar
    21    14    13   ar
    22    14     9   ar
    23    15    14   ar
    24    16    15   ar
    25    16    37    1
    26    17    16   ar
    27    17    13   ar
    28    18    17    1
    29    18    38    1
    30    19    18    1
    31    19    39    1
    32    20    19    1
    33    20    40    1
    34    21    20    1
    35    21    41    1
    36    22    21    1
    37    22    18    1
    38    23    21    1
    39    23    42    1
    40    23    43    1
    41    24    23    1
    42    24    44    1
    43    25    20    1
    44    25    45    1
    45    26    19    1
    46    26    46    1
    47    27     3    1
    48    28    27    2
    49    29    27    1
@<TRIPOS>MOLECULE
mol_679_akc_3283487
>660.sdf
 69 73 0 0 0
SMALL
GASTEIGER

@<TRIPOS>ATOM
      1 C           1.2138    2.0678   -0.4569 C.3     1  UNL1        0.0788
      2 O           0.4603    0.8594   -0.4911 O.3     1  UNL1       -0.4944
      3 C           1.1102   -0.2748   -0.0758 C.ar    1  UNL1        0.1316
      4 C           2.0870   -0.2469    0.9330 C.ar    1  UNL1       -0.0192
      5 C           2.6734   -1.4246    1.3978 C.ar    1  UNL1       -0.0576
      6 C           2.2584   -2.6451    0.8834 C.ar    1  UNL1       -0.0500
      7 C           1.2625   -2.6840   -0.1028 C.ar    1  UNL1        0.0367
      8 C           0.7019   -1.5120   -0.6133 C.ar    1  UNL1        0.0748
      9 C          -0.2517   -1.6289   -1.7584 C.2     1  UNL1        0.2016
     10 O          -0.3981   -0.6964   -2.5440 O.2     1  UNL1       -0.2864
     11 C          -0.9349   -2.9338   -2.0144 C.ar    1  UNL1        0.0784
     12 C          -2.0443   -3.0643   -2.8888 C.ar    1  UNL1        0.1345
     13 O          -2.5963   -1.9427   -3.4460 O.3     1  UNL1       -0.5057
     14 C          -2.6403   -4.3209   -3.1690 C.ar    1  UNL1        0.0302
     15 C          -2.1363   -5.4510   -2.4818 C.ar    1  UNL1        0.0070
     16 C          -2.8008   -6.8112   -2.6002 C.3     1  UNL1        0.0123
     17 C          -3.4682   -6.9861   -3.9638 C.3     1  UNL1        0.1325
     18 O          -2.4975   -6.9618   -5.0227 O.3     1  UNL1       -0.3806
     19 C          -4.4675   -5.8366   -4.1266 C.3     1  UNL1        0.0141
     20 C          -3.7707   -4.4743   -4.2098 C.3     1  UNL1        0.0934
     21 O          -3.2068   -4.2395   -5.5190 O.3     1  UNL1       -0.3431
     22 C          -4.1351   -3.9374   -6.5706 C.3     1  UNL1        0.1655
     23 C          -3.3091   -3.4466   -7.7537 C.3     1  UNL1        0.0439
     24 C          -4.1906   -3.0461   -8.9170 C.3     1  UNL1        0.0093
     25 N          -4.9552   -1.7820   -8.6385 N.4     1  UNL1        0.2228
     26 C          -5.1983   -4.1303   -9.3090 C.3     1  UNL1        0.1234
     27 O          -6.1416   -3.5076  -10.1963 O.3     1  UNL1       -0.3836
     28 C          -5.8588   -4.7888   -8.0737 C.3     1  UNL1        0.0900
     29 C          -7.0997   -4.0834   -7.5189 C.3     1  UNL1       -0.0359
     30 O          -4.9027   -5.0454   -7.0293 O.3     1  UNL1       -0.3454
     31 C          -4.1714   -8.3494   -4.0645 C.2     1  UNL1        0.1900
     32 O          -5.3852   -8.4462   -4.2777 O.2     1  UNL1       -0.2919
     33 C          -3.3039   -9.5932   -3.9039 C.3     1  UNL1        0.1051
     34 O          -3.2056   -9.9749   -2.5452 O.3     1  UNL1       -0.3874
     35 C          -1.0181   -5.3185   -1.6385 C.ar    1  UNL1        0.1322
     36 O          -0.5389   -6.4673   -1.0601 O.3     1  UNL1       -0.5057
     37 C          -0.4104   -4.0691   -1.4215 C.ar    1  UNL1        0.0782
     38 C           0.7926   -3.9932   -0.5732 C.2     1  UNL1        0.1982
     39 O           1.3703   -5.0222   -0.2426 O.2     1  UNL1       -0.2865
     40 H           1.4221    2.3884    0.5685 H       1  UNL1        0.0660
     41 H           2.1394    1.9695   -1.0340 H       1  UNL1        0.0660
     42 H           0.6065    2.8515   -0.9196 H       1  UNL1        0.0660
     43 H           2.4005    0.6834    1.3988 H       1  UNL1        0.0654
     44 H           3.4327   -1.3867    2.1766 H       1  UNL1        0.0619
     45 H           2.7034   -3.5637    1.2630 H       1  UNL1        0.0625
     46 H          -2.9067   -2.1612   -4.3325 H       1  UNL1        0.2922
     47 H          -3.5414   -6.8992   -1.7912 H       1  UNL1        0.0347
     48 H          -2.0608   -7.6032   -2.4516 H       1  UNL1        0.0347
     49 H          -1.6348   -6.7072   -4.6483 H       1  UNL1        0.2108
     50 H          -5.0951   -6.0124   -4.9999 H       1  UNL1        0.0326
     51 H          -5.1527   -5.8306   -3.2670 H       1  UNL1        0.0326
     52 H          -4.5176   -3.6951   -4.0111 H       1  UNL1        0.0649
     53 H          -4.7900   -3.1382   -6.2116 H       1  UNL1        0.0912
     54 H          -2.6327   -2.6371   -7.4638 H       1  UNL1        0.0370
     55 H          -2.6655   -4.2735   -8.0937 H       1  UNL1        0.0370
     56 H          -3.5786   -2.7946   -9.7908 H       1  UNL1        0.0878
     57 H          -5.5573   -1.6136   -9.4648 H       1  UNL1        0.1998
     58 H          -5.6159   -1.8455   -7.8562 H       1  UNL1        0.1998
     59 H          -4.3552   -0.9572   -8.5101 H       1  UNL1        0.1998
     60 H          -4.6658   -4.9131   -9.8658 H       1  UNL1        0.0676
     61 H          -5.9878   -3.8544  -11.1002 H       1  UNL1        0.2102
     62 H          -6.2115   -5.7727   -8.4107 H       1  UNL1        0.0622
     63 H          -7.7723   -4.8301   -7.0793 H       1  UNL1        0.0255
     64 H          -6.8674   -3.3828   -6.7141 H       1  UNL1        0.0255
     65 H          -7.6706   -3.5586   -8.2896 H       1  UNL1        0.0255
     66 H          -3.7503  -10.4061   -4.4854 H       1  UNL1        0.0637
     67 H          -2.2999   -9.4093   -4.2969 H       1  UNL1        0.0637
     68 H          -2.7860  -10.8533   -2.5230 H       1  UNL1        0.2100
     69 H           0.3127   -6.2692   -0.6042 H       1  UNL1        0.2922
@<TRIPOS>UNITY_ATOM_ATTR
25 1
charge 1
@<TRIPOS>BOND
     1     1    40    1
     2     1    41    1
     3     1    42    1
     4     2     1    1
     5     3     2    1
     6     4     3   ar
     7     4    43    1
     8     5     4   ar
     9     5    44    1
    10     6     5   ar
    11     6    45    1
    12     7     6   ar
    13     8     7   ar
    14     8     3   ar
    15     9     8    1
    16    10     9    2
    17    11     9    1
    18    12    11   ar
    19    13    12    1
    20    13    46    1
    21    14    12   ar
    22    15    14   ar
    23    16    15    1
    24    16    47    1
    25    16    48    1
    26    17    16    1
    27    18    49    1
    28    19    17    1
    29    19    50    1
    30    19    51    1
    31    20    19    1
    32    20    14    1
    33    23    22    1
    34    23    54    1
    35    23    55    1
    36    24    23    1
    37    25    57    1
    38    25    58    1
    39    25    59    1
    40    26    24    1
    41    27    61    1
    42    28    26    1
    43    29    63    1
    44    29    64    1
    45    29    65    1
    46    30    28    1
    47    30    22    1
    48    32    31    2
    49    33    31    1
    50    33    66    1
    51    33    67    1
    52    34    33    1
    53    34    68    1
    54    35    15   ar
    55    36    35    1
    56    36    69    1
    57    37    35   ar
    58    37    11   ar
    59    38    37    1
    60    38     7    1
    61    39    38    2
    62    17    31    1
    63    17    18    1
    64    20    21    1
    65    20    52    1
    66    22    53    1
    67    22    21    1
    68    24    25    1
    69    24    56    1
    70    26    27    1
    71    26    60    1
    72    28    29    1
    73    28    62    1
@<TRIPOS>MOLECULE
mol_67_akc_ardp201900241
>66.sdf
 39 41 0 0 0
SMALL
GASTEIGER

@<TRIPOS>ATOM
      1 C           1.1181    0.3558   -0.5183 C.3     1  UNL1        0.0790
      2 O           2.4086    0.0440   -0.0061 O.3     1  UNL1       -0.4913
      3 C           3.1237   -0.9385   -0.6416 C.ar    1  UNL1        0.1658
      4 C           2.8549   -1.3283   -1.9630 C.ar    1  UNL1       -0.0053
      5 C           3.6514   -2.2738   -2.6234 C.ar    1  UNL1        0.0271
      6 C           4.7212   -2.8527   -1.9330 C.ar    1  UNL1       -0.0053
      7 C           5.0262   -2.4577   -0.6278 C.ar    1  UNL1        0.1658
      8 O           6.0769   -2.9922    0.0811 O.3     1  UNL1       -0.4913
      9 C           7.2129   -3.3703   -0.6894 C.3     1  UNL1        0.0790
     10 C           4.2204   -1.5085    0.0335 C.ar    1  UNL1        0.2035
     11 O           4.6544   -1.1681    1.2937 O.3     1  UNL1       -0.4885
     12 C           3.6699   -0.7830    2.2418 C.3     1  UNL1        0.0791
     13 C           3.4295   -2.6020   -4.0246 C.ar    1  UNL1        0.1681
     14 C           4.2150   -3.1422   -5.0145 C.ar    1  UNL1        0.0161
     15 C           3.3969   -3.1310   -6.1605 C.ar    1  UNL1        0.1489
     16 N           2.1825   -2.6361   -5.8983 N.ar    1  UNL1       -0.0745
     17 O           2.2045   -2.3068   -4.5499 O.2     1  UNL1       -0.3540
     18 C           3.8217   -3.6052   -7.5037 C.ar    1  UNL1        0.1592
     19 C           3.0739   -3.5752   -8.6688 C.ar    1  UNL1       -0.0118
     20 C           3.8756   -4.1486   -9.6913 C.ar    1  UNL1        0.0086
     21 C           5.0581   -4.4846   -9.0770 C.ar    1  UNL1        0.2803
     22 O           5.0501   -4.1554   -7.7612 O.2     1  UNL1       -0.4323
     23 N           6.2456   -5.1103   -9.5650 N.pl3   1  UNL1        0.0926
     24 O           6.2224   -5.4813  -10.7468 O.2     1  UNL1       -0.1231
     25 O           7.1958   -5.2365   -8.7833 O.2     1  UNL1       -0.1231
     26 H           1.1894    0.8736   -1.4799 H       1  UNL1        0.0660
     27 H           0.4939   -0.5409   -0.5943 H       1  UNL1        0.0660
     28 H           0.6365    1.0399    0.1868 H       1  UNL1        0.0660
     29 H           2.0455   -0.8642   -2.5188 H       1  UNL1        0.0662
     30 H           5.3169   -3.6172   -2.4212 H       1  UNL1        0.0662
     31 H           7.0493   -4.3410   -1.1682 H       1  UNL1        0.0660
     32 H           7.4742   -2.6073   -1.4316 H       1  UNL1        0.0660
     33 H           8.0617   -3.4755   -0.0068 H       1  UNL1        0.0660
     34 H           3.4469    0.2842    2.1535 H       1  UNL1        0.0660
     35 H           2.7630   -1.3930    2.1709 H       1  UNL1        0.0660
     36 H           4.0937   -0.9393    3.2386 H       1  UNL1        0.0660
     37 H           5.2415   -3.4656   -4.9372 H       1  UNL1        0.0679
     38 H           2.0670   -3.1882   -8.7617 H       1  UNL1        0.0657
     39 H           3.6209   -4.3008  -10.7309 H       1  UNL1        0.0673
@<TRIPOS>BOND
     1     1    26    1
     2     1    27    1
     3     1    28    1
     4     2     1    1
     5     3     2    1
     6     4     3   ar
     7     4    29    1
     8     5     4   ar
     9     6     5   ar
    10     6    30    1
    11     7     6   ar
    12     8     7    1
    13     9     8    1
    14     9    31    1
    15     9    32    1
    16     9    33    1
    17    10     7   ar
    18    10     3   ar
    19    11    10    1
    20    12    11    1
    21    12    34    1
    22    12    35    1
    23    12    36    1
    24    13     5    1
    25    14    13   ar
    26    14    37    1
    27    15    14   ar
    28    16    15   ar
    29    17    16   ar
    30    17    13   ar
    31    18    15    1
    32    19    18   ar
    33    19    38    1
    34    20    19   ar
    35    20    39    1
    36    21    20   ar
    37    22    21   ar
    38    22    18   ar
    39    23    21    1
    40    24    23    2
    41    25    23    2
@<TRIPOS>MOLECULE
mol_681_akc_0006_291x9092109_d
>662.sdf
 18 18 0 0 0
SMALL
GASTEIGER

@<TRIPOS>ATOM
      1 C          -2.2467   -0.0418    0.9102 C.3     1  UNL1        0.0491
      2 C          -1.2264   -0.0364   -0.2185 C.3     1  UNL1        0.1818
      3 O          -0.5366    1.2271   -0.0586 O.2     1  UNL1       -0.3830
      4 N          -1.4503    2.1373    0.5322 N.2     1  UNL1       -0.0767
      5 C          -2.3584    1.4158    1.1018 C.2     1  UNL1        0.1490
      6 CL         -3.6466    2.0916    1.9593 Cl      1  UNL1       -0.0633
      7 CA         -1.7395   -0.0758   -1.6648 C.3     1  UNL1        0.0566
      8 C          -2.5812   -1.3540   -1.7961 C.2     1  UNL1        0.0931
      9 O          -3.8158   -1.0503   -1.8770 O.co2   1  UNL1       -0.5441
     10 OXT        -1.9710   -2.4417   -1.7816 O.co2   1  UNL1       -0.5441
     11 N          -2.5784    1.1538   -1.9886 N.4     1  UNL1        0.2277
     12 H          -3.2014   -0.5159    0.6797 H       1  UNL1        0.0377
     13 H          -1.8324   -0.4759    1.8253 H       1  UNL1        0.0377
     14 H          -0.5007   -0.8436   -0.0644 H       1  UNL1        0.0826
     15 HA         -0.9094   -0.0530   -2.3779 H       1  UNL1        0.0953
     16 H1         -3.5451    0.8573   -1.7350 H       1  UNL1        0.2002
     17 H2         -2.2661    1.9964   -1.4904 H       1  UNL1        0.2002
     18 H3         -2.6182    1.2948   -3.0013 H       1  UNL1        0.2002
@<TRIPOS>UNITY_ATOM_ATTR
10 1
charge -1
11 1
charge 1
@<TRIPOS>BOND
     1     1    12    1
     2     1    13    1
     3     2     1    1
     4     2    14    1
     5     3     2    1
     6     4     3    1
     7     5     4    2
     8     5     1    1
     9     6     5    1
    10     7     2    1
    11     7    15    1
    12     8     7    1
    13     9     8   ar
    14    10     8   ar
    15    11     7    1
    16    11    16    1
    17    11    17    1
    18    11    18    1
