@<TRIPOS>MOLECULE
mol_682_akc_s0031182000061205
>663.sdf
 39 38 0 0 0
SMALL
GASTEIGER

@<TRIPOS>ATOM
      1 C           1.0260   -1.5424    1.0765 C.3     1  UNL1        0.0817
      2 O           2.4407   -1.5433    0.8719 O.3     1  UNL1       -0.4666
      3 C           3.0915   -0.4573    1.3631 C.2     1  UNL1        0.3276
      4 O           2.5787    0.4713    1.9829 O.2     1  UNL1       -0.2487
      5 C           4.5872   -0.5216    1.0332 C.3     1  UNL1        0.1228
      6 N           5.1280    0.8528    1.0402 N.am    1  UNL1       -0.2975
      7 C           5.1285    1.5980   -0.1083 C.2     1  UNL1        0.2621
      8 O           4.7554    1.1750   -1.2046 O.2     1  UNL1       -0.2696
      9 C           5.7623    3.0001   -0.0370 C.3     1  UNL1        0.0555
     10 N           6.1882    3.3738   -1.4325 N.4     1  UNL1        0.2275
     11 C           4.8472    4.0771    0.5737 C.3     1  UNL1        0.0050
     12 C           5.5878    5.4092    0.7379 C.3     1  UNL1       -0.0571
     13 C           3.5544    4.3062   -0.2173 C.3     1  UNL1       -0.0571
     14 C           5.3601   -1.4613    1.9829 C.3     1  UNL1       -0.0179
     15 C           6.8321   -1.5652    1.5632 C.3     1  UNL1       -0.0605
     16 C           5.2715   -1.0593    3.4576 C.3     1  UNL1       -0.0605
     17 H           0.8045   -1.8551    2.1009 H       1  UNL1        0.0661
     18 H           0.5882   -0.5606    0.8687 H       1  UNL1        0.0661
     19 H           0.5836   -2.2646    0.3847 H       1  UNL1        0.0661
     20 H           4.6717   -0.9051    0.0081 H       1  UNL1        0.0617
     21 H           5.0622    1.3320    1.9339 H       1  UNL1        0.1497
     22 H           6.6947    2.9188    0.5362 H       1  UNL1        0.0951
     23 H           5.3684    3.3526   -2.0554 H       1  UNL1        0.2002
     24 H           6.6643    4.2776   -1.5104 H       1  UNL1        0.2002
     25 H           6.8047    2.6390   -1.8069 H       1  UNL1        0.2002
     26 H           4.5550    3.7411    1.5773 H       1  UNL1        0.0355
     27 H           5.8539    5.8518   -0.2284 H       1  UNL1        0.0234
     28 H           4.9638    6.1376    1.2680 H       1  UNL1        0.0234
     29 H           6.5080    5.2766    1.3164 H       1  UNL1        0.0234
     30 H           3.7532    4.6548   -1.2355 H       1  UNL1        0.0234
     31 H           2.9596    3.3897   -0.2769 H       1  UNL1        0.0234
     32 H           2.9360    5.0669    0.2727 H       1  UNL1        0.0234
     33 H           4.9211   -2.4641    1.8956 H       1  UNL1        0.0319
     34 H           7.3507   -0.6063    1.6666 H       1  UNL1        0.0233
     35 H           7.3617   -2.2959    2.1831 H       1  UNL1        0.0233
     36 H           6.9178   -1.8883    0.5206 H       1  UNL1        0.0233
     37 H           5.6965   -0.0668    3.6362 H       1  UNL1        0.0233
     38 H           4.2339   -1.0569    3.8067 H       1  UNL1        0.0233
     39 H           5.8224   -1.7721    4.0820 H       1  UNL1        0.0233
@<TRIPOS>UNITY_ATOM_ATTR
10 1
charge 1
@<TRIPOS>BOND
     1     1    17    1
     2     1    18    1
     3     1    19    1
     4     2     1    1
     5     3     2    1
     6     4     3    2
     7     5     3    1
     8     5    20    1
     9     6     5    1
    10     6    21    1
    11     7     6   am
    12     8     7    2
    13     9     7    1
    14     9    22    1
    15    10     9    1
    16    10    23    1
    17    10    24    1
    18    10    25    1
    19    11     9    1
    20    11    26    1
    21    12    11    1
    22    12    27    1
    23    12    28    1
    24    12    29    1
    25    13    11    1
    26    13    30    1
    27    13    31    1
    28    13    32    1
    29    14     5    1
    30    14    33    1
    31    15    14    1
    32    15    34    1
    33    15    35    1
    34    15    36    1
    35    16    14    1
    36    16    37    1
    37    16    38    1
    38    16    39    1
@<TRIPOS>MOLECULE
mol_683_akc_0166_68518890147_8
>664.sdf
 52 53 0 0 0
SMALL
GASTEIGER

@<TRIPOS>ATOM
      1 C           0.5050   -1.1763   -2.5353 C.3     1  UNL1       -0.0653
      2 C           2.0066   -1.3016   -2.7349 C.3     1  UNL1       -0.0559
      3 C           2.6446    0.0596   -3.0060 C.3     1  UNL1       -0.0533
      4 C           4.1559   -0.0615   -3.2059 C.3     1  UNL1       -0.0531
      5 C           4.7837    1.3058   -3.4786 C.3     1  UNL1       -0.0530
      6 C           6.2908    1.1831   -3.6729 C.3     1  UNL1       -0.0500
      7 C           6.9417    2.5376   -3.9478 C.3     1  UNL1       -0.0186
      8 C           8.4466    2.3748   -4.1280 C.3     1  UNL1        0.0896
      9 O           9.0316    3.6493   -4.3953 O.3     1  UNL1       -0.4920
     10 C          10.3777    3.6385   -4.6615 C.ar    1  UNL1        0.1208
     11 C          11.2195    2.5371   -4.5183 C.ar    1  UNL1       -0.0199
     12 C          12.5759    2.6413   -4.8277 C.ar    1  UNL1       -0.0580
     13 C          13.0912    3.8453   -5.3064 C.ar    1  UNL1       -0.0580
     14 C          12.2631    4.9618   -5.4746 C.ar    1  UNL1       -0.0395
     15 C          12.8105    6.2534   -6.0505 C.3     1  UNL1        0.0024
     16 C          13.4161    7.1717   -5.0318 C.ar    1  UNL1        0.0146
     17 C          14.7634    7.2229   -4.7232 C.ar    1  UNL1        0.1247
     18 N          15.7182    6.5057   -5.4435 N.pl3   1  UNL1       -0.3428
     19 N          15.2626    8.0125   -3.7593 N.ar    1  UNL1       -0.1999
     20 C          14.3973    8.7656   -3.0791 C.ar    1  UNL1        0.2142
     21 N          14.8907    9.5304   -2.0429 N.pl3   1  UNL1       -0.3274
     22 N          13.0925    8.8535   -3.3388 N.ar    1  UNL1       -0.2227
     23 C          12.6300    8.0428   -4.3075 C.ar    1  UNL1        0.0379
     24 C          10.9066    4.8517   -5.1195 C.ar    1  UNL1       -0.0164
     25 H           0.0647   -2.1587   -2.3412 H       1  UNL1        0.0230
     26 H           0.2760   -0.5260   -1.6851 H       1  UNL1        0.0230
     27 H           0.0258   -0.7581   -3.4264 H       1  UNL1        0.0230
     28 H           2.4535   -1.7517   -1.8405 H       1  UNL1        0.0263
     29 H           2.2045   -1.9799   -3.5730 H       1  UNL1        0.0263
     30 H           2.1911    0.5064   -3.8995 H       1  UNL1        0.0265
     31 H           2.4384    0.7358   -2.1669 H       1  UNL1        0.0265
     32 H           4.6100   -0.5045   -2.3116 H       1  UNL1        0.0265
     33 H           4.3631   -0.7367   -4.0435 H       1  UNL1        0.0265
     34 H           4.3309    1.7486   -4.3742 H       1  UNL1        0.0265
     35 H           4.5738    1.9831   -2.6407 H       1  UNL1        0.0265
     36 H           6.7404    0.7367   -2.7767 H       1  UNL1        0.0266
     37 H           6.4979    0.5013   -4.5082 H       1  UNL1        0.0266
     38 H           6.5107    2.9970   -4.8469 H       1  UNL1        0.0298
     39 H           6.7449    3.2338   -3.1240 H       1  UNL1        0.0298
     40 H           8.8683    1.9569   -3.2058 H       1  UNL1        0.0696
     41 H           8.6332    1.6940   -4.9690 H       1  UNL1        0.0696
     42 H          10.8581    1.5746   -4.1676 H       1  UNL1        0.0654
     43 H          13.2244    1.7802   -4.7078 H       1  UNL1        0.0619
     44 H          14.1448    3.8867   -5.5601 H       1  UNL1        0.0620
     45 H          13.5346    6.0130   -6.8390 H       1  UNL1        0.0363
     46 H          12.0058    6.7801   -6.5812 H       1  UNL1        0.0363
     47 H          16.6150    6.6769   -4.9973 H       1  UNL1        0.1437
     48 H          15.5089    5.5174   -5.4824 H       1  UNL1        0.1437
     49 H          15.8785    9.6963   -2.1753 H       1  UNL1        0.1452
     50 H          14.2934   10.3286   -1.8909 H       1  UNL1        0.1452
     51 H          11.5602    8.1236   -4.4882 H       1  UNL1        0.0834
     52 H          10.2412    5.7050   -5.2217 H       1  UNL1        0.0657
@<TRIPOS>BOND
     1     1    25    1
     2     1    26    1
     3     1    27    1
     4     2     1    1
     5     2    28    1
     6     2    29    1
     7     3     2    1
     8     3    30    1
     9     3    31    1
    10     4     3    1
    11     4    32    1
    12     4    33    1
    13     5     4    1
    14     5    34    1
    15     5    35    1
    16     6     5    1
    17     6    36    1
    18     6    37    1
    19     7     6    1
    20     7    38    1
    21     7    39    1
    22     8     7    1
    23     8    40    1
    24     8    41    1
    25     9     8    1
    26    10     9    1
    27    11    10   ar
    28    11    42    1
    29    12    11   ar
    30    12    43    1
    31    13    12   ar
    32    13    44    1
    33    14    13   ar
    34    15    14    1
    35    15    45    1
    36    15    46    1
    37    16    15    1
    38    17    16   ar
    39    18    17    1
    40    18    47    1
    41    18    48    1
    42    19    17   ar
    43    20    19   ar
    44    21    20    1
    45    21    49    1
    46    21    50    1
    47    22    20   ar
    48    23    22   ar
    49    23    16   ar
    50    23    51    1
    51    24    14   ar
    52    24    10   ar
    53    24    52    1
@<TRIPOS>MOLECULE
mol_684_akc_ajtmh1986351110
>665.sdf
 75 76 0 0 0
SMALL
GASTEIGER

@<TRIPOS>ATOM
      1 C           2.5720   -0.3416    0.0232 C.3     1  UNL1       -0.0362
      2 C           1.0971   -0.0447    0.0860 C.ar    1  UNL1       -0.0085
      3 C           0.4258    1.1880    0.1729 C.ar    1  UNL1        0.1235
      4 O           0.9012    2.4704    0.2588 O.3     1  UNL1       -0.4894
      5 C           2.2954    2.6500    0.2134 C.3     1  UNL1        0.1128
      6 C           2.6693    4.1247    0.2561 C.3     1  UNL1        0.0820
      7 O           4.0666    4.3404    0.0041 O.3     1  UNL1       -0.3712
      8 C           4.5734    3.8560   -1.2451 C.3     1  UNL1        0.0877
      9 C           3.8910    4.5454   -2.4339 C.3     1  UNL1       -0.0063
     10 N           4.2344    4.0046   -3.8239 N.4     1  UNL1        0.2439
     11 C           3.5341    4.8833   -4.8647 C.3     1  UNL1       -0.0411
     12 C           5.7448    4.1544   -4.0576 C.3     1  UNL1       -0.0411
     13 C           3.8756    2.5169   -4.0555 C.3     1  UNL1       -0.0046
     14 C           2.4823    1.9390   -3.9257 C.ar    1  UNL1       -0.0028
     15 C           1.3074    2.6197   -3.5787 C.ar    1  UNL1       -0.0535
     16 C           0.0825    1.9472   -3.4825 C.ar    1  UNL1       -0.0613
     17 C          -0.0075    0.5879   -3.7441 C.ar    1  UNL1       -0.0617
     18 C           1.1391   -0.1126   -4.1028 C.ar    1  UNL1       -0.0613
     19 C           2.3603    0.5566   -4.1935 C.ar    1  UNL1       -0.0535
     20 C          -0.9771    1.1908    0.1871 C.ar    1  UNL1       -0.0194
     21 C          -1.7235    0.0118    0.1426 C.ar    1  UNL1       -0.0546
     22 C          -1.0926   -1.2296    0.0597 C.ar    1  UNL1       -0.0412
     23 C           0.3133   -1.2206    0.0357 C.ar    1  UNL1       -0.0517
     24 C          -1.8555   -2.5799   -0.0533 C.3     1  UNL1       -0.0094
     25 C          -3.3771   -2.3388   -0.1359 C.3     1  UNL1       -0.0558
     26 C          -1.4230   -3.2136   -1.3925 C.3     1  UNL1       -0.0558
     27 C          -1.4657   -3.4611    1.1963 C.3     1  UNL1       -0.0389
     28 C          -2.0257   -4.8967    1.4803 C.3     1  UNL1       -0.0369
     29 C          -1.5829   -5.9303    0.4336 C.3     1  UNL1       -0.0600
     30 C          -1.4356   -5.3627    2.8388 C.3     1  UNL1       -0.0600
     31 C          -3.5524   -4.9378    1.6282 C.3     1  UNL1       -0.0600
     32 H           2.8465   -1.0002    0.8540 H       1  UNL1        0.0279
     33 H           2.7940   -0.8590   -0.9186 H       1  UNL1        0.0279
     34 H           3.2587    0.4933    0.0699 H       1  UNL1        0.0279
     35 H           2.7714    2.1694    1.0753 H       1  UNL1        0.0720
     36 H           2.6492    2.2286   -0.7277 H       1  UNL1        0.0720
     37 H           2.0578    4.7186   -0.4329 H       1  UNL1        0.0594
     38 H           2.4471    4.5264    1.2489 H       1  UNL1        0.0594
     39 H           5.6430    4.0891   -1.2464 H       1  UNL1        0.0613
     40 H           4.5098    2.7667   -1.2825 H       1  UNL1        0.0613
     41 H           2.8095    4.5137   -2.3410 H       1  UNL1        0.0838
     42 H           4.1617    5.6085   -2.4199 H       1  UNL1        0.0838
     43 H           3.8635    5.9165   -4.7125 H       1  UNL1        0.0778
     44 H           3.8126    4.5373   -5.8618 H       1  UNL1        0.0778
     45 H           2.4549    4.8256   -4.7260 H       1  UNL1        0.0778
     46 H           6.2733    3.4569   -3.3999 H       1  UNL1        0.0778
     47 H           5.9598    3.9150   -5.1026 H       1  UNL1        0.0778
     48 H           6.0314    5.1860   -3.8333 H       1  UNL1        0.0778
     49 H           4.5303    1.9504   -3.3780 H       1  UNL1        0.0868
     50 H           4.2140    2.3067   -5.0779 H       1  UNL1        0.0868
     51 H           1.2784    3.6781   -3.3617 H       1  UNL1        0.0622
     52 H          -0.8184    2.4928   -3.1930 H       1  UNL1        0.0618
     53 H          -0.9616    0.0705   -3.6579 H       1  UNL1        0.0618
     54 H           1.0738   -1.1780   -4.3139 H       1  UNL1        0.0618
     55 H           3.2336   -0.0317   -4.4783 H       1  UNL1        0.0622
     56 H          -1.5106    2.1392    0.2333 H       1  UNL1        0.0654
     57 H          -2.8039    0.1096    0.1707 H       1  UNL1        0.0622
     58 H           0.8387   -2.1741   -0.0307 H       1  UNL1        0.0624
     59 H          -3.6290   -1.5925   -0.8988 H       1  UNL1        0.0238
     60 H          -3.9206   -3.2323   -0.4395 H       1  UNL1        0.0238
     61 H          -3.7801   -1.9931    0.8234 H       1  UNL1        0.0238
     62 H          -0.4173   -3.6482   -1.3381 H       1  UNL1        0.0238
     63 H          -2.1101   -4.0048   -1.7107 H       1  UNL1        0.0238
     64 H          -1.4178   -2.4743   -2.2002 H       1  UNL1        0.0238
     65 H          -0.3714   -3.5691    1.2038 H       1  UNL1        0.0279
     66 H          -1.6868   -2.8514    2.0863 H       1  UNL1        0.0279
     67 H          -0.4902   -5.9970    0.3775 H       1  UNL1        0.0235
     68 H          -1.9595   -6.9284    0.6876 H       1  UNL1        0.0235
     69 H          -1.9623   -5.7057   -0.5624 H       1  UNL1        0.0235
     70 H          -1.6545   -4.6447    3.6371 H       1  UNL1        0.0235
     71 H          -1.8539   -6.3298    3.1431 H       1  UNL1        0.0235
     72 H          -0.3475   -5.4821    2.7825 H       1  UNL1        0.0235
     73 H          -3.9095   -4.1343    2.2811 H       1  UNL1        0.0235
     74 H          -4.0604   -4.8701    0.6659 H       1  UNL1        0.0235
     75 H          -3.8819   -5.8872    2.0659 H       1  UNL1        0.0235
@<TRIPOS>UNITY_ATOM_ATTR
10 1
charge 1
@<TRIPOS>BOND
     1     1    32    1
     2     1    33    1
     3     1    34    1
     4     2     1    1
     5     3     2   ar
     6     4     3    1
     7     5     4    1
     8     5    35    1
     9     5    36    1
    10     6     5    1
    11     6    37    1
    12     6    38    1
    13     7     6    1
    14     8     7    1
    15     8    39    1
    16     8    40    1
    17     9     8    1
    18     9    41    1
    19     9    42    1
    20    10     9    1
    21    11    10    1
    22    11    43    1
    23    11    44    1
    24    11    45    1
    25    12    10    1
    26    12    46    1
    27    12    47    1
    28    12    48    1
    29    13    10    1
    30    13    49    1
    31    13    50    1
    32    14    13    1
    33    15    14   ar
    34    15    51    1
    35    16    15   ar
    36    16    52    1
    37    17    16   ar
    38    17    53    1
    39    18    17   ar
    40    18    54    1
    41    19    18   ar
    42    19    14   ar
    43    19    55    1
    44    20     3   ar
    45    20    56    1
    46    21    20   ar
    47    21    57    1
    48    22    21   ar
    49    23    22   ar
    50    23     2   ar
    51    23    58    1
    52    24    22    1
    53    25    24    1
    54    25    59    1
    55    25    60    1
    56    25    61    1
    57    26    24    1
    58    26    62    1
    59    26    63    1
    60    26    64    1
    61    27    24    1
    62    27    65    1
    63    27    66    1
    64    28    27    1
    65    29    28    1
    66    29    67    1
    67    29    68    1
    68    29    69    1
    69    30    28    1
    70    30    70    1
    71    30    71    1
    72    30    72    1
    73    31    28    1
    74    31    73    1
    75    31    74    1
    76    31    75    1
@<TRIPOS>MOLECULE
mol_685_akc_0035_92038590255_x
>666.sdf
 31 33 0 0 0
SMALL
GASTEIGER

@<TRIPOS>ATOM
      1 O5*         1.6688   -1.1958    0.5829 O.3     1  UNL1       -0.3924
      2 C5*         2.2738   -0.0524   -0.0074 C.3     1  UNL1        0.0730
      3 C4*         2.7734   -0.3495   -1.4232 C.3     1  UNL1        0.1126
      4 O4*         3.7893   -1.3755   -1.3507 O.3     1  UNL1       -0.3443
      5 C1*         3.2853   -2.5737   -2.0172 C.3     1  UNL1        0.1820
      6 C2*         1.7844   -2.3725   -2.2427 C.3     1  UNL1        0.1299
      7 O2*         1.2828   -3.0464   -3.3960 O.3     1  UNL1       -0.3846
      8 C3*         1.6796   -0.8571   -2.3598 C.3     1  UNL1        0.1136
      9 O3*         1.9675   -0.4568   -3.7073 O.3     1  UNL1       -0.3864
     10 N           3.5866   -3.7488   -1.1964 N.ar    1  UNL1       -0.2166
     11 N           3.2418   -4.9928   -1.6303 N.ar    1  UNL1       -0.1746
     12 C           3.6476   -5.8155   -0.6510 C.ar    1  UNL1        0.0640
     13 C           4.2598   -5.1257    0.4001 C.ar    1  UNL1        0.1029
     14 C           4.2063   -3.8143    0.0180 C.ar    1  UNL1        0.1457
     15 N           4.7277   -2.8397    0.7821 N.ar    1  UNL1       -0.3304
     16 C           5.3393   -3.2499    1.9432 C.ar    1  UNL1        0.0988
     17 N           5.4267   -4.4636    2.3950 N.ar    1  UNL1       -0.1989
     18 C           4.8831   -5.5112    1.6505 C.ar    1  UNL1        0.2837
     19 O           4.9306   -6.6826    2.0082 O.2     1  UNL1       -0.2650
     20 H5*         2.3813   -1.7927    0.8800 H       1  UNL1        0.2095
     21 H5*1        1.5299    0.7499   -0.0276 H       1  UNL1        0.0584
     22 H5*2        3.1011    0.2615    0.6389 H       1  UNL1        0.0584
     23 H4*         3.2542    0.5508   -1.8234 H       1  UNL1        0.0647
     24 H1*         3.8400   -2.7002   -2.9542 H       1  UNL1        0.0881
     25 H2*         1.2093   -2.7238   -1.3798 H       1  UNL1        0.0666
     26 H2*         0.5138   -2.5502   -3.7235 H       1  UNL1        0.2101
     27 H3*         0.6784   -0.4849   -2.1232 H       1  UNL1        0.0647
     28 H3*         1.8413    0.5064   -3.7743 H       1  UNL1        0.2100
     29 H           3.4860   -6.8813   -0.7558 H       1  UNL1        0.0856
     30 H           4.8550   -1.8906    0.4324 H       1  UNL1        0.1682
     31 H           5.7786   -2.4146    2.5136 H       1  UNL1        0.1028
@<TRIPOS>BOND
     1     1    20    1
     2     2     1    1
     3     2    21    1
     4     2    22    1
     5     3     2    1
     6     3    23    1
     7     4     3    1
     8     5     4    1
     9     5    24    1
    10     6     5    1
    11     6    25    1
    12     7     6    1
    13     7    26    1
    14     8     6    1
    15     8     3    1
    16     8    27    1
    17     9     8    1
    18     9    28    1
    19    10     5    1
    20    11    10   ar
    21    12    11   ar
    22    12    29    1
    23    13    12   ar
    24    14    13   ar
    25    14    10   ar
    26    15    14   ar
    27    15    30    1
    28    16    15   ar
    29    16    31    1
    30    17    16   ar
    31    18    17   ar
    32    18    13   ar
    33    19    18    2
@<TRIPOS>MOLECULE
mol_686_akc_jm00375a006
>667.sdf
 31 33 0 0 0
SMALL
GASTEIGER

@<TRIPOS>ATOM
      1 O5*         1.6831    0.8627    0.7669 O.3     1  UNL1       -0.3924
      2 C5*         2.4420    0.0310   -0.1057 C.3     1  UNL1        0.0730
      3 C4*         3.0783   -1.1353    0.6599 C.3     1  UNL1        0.1126
      4 O4*         2.0424   -1.8696    1.3528 O.3     1  UNL1       -0.3443
      5 C1*         2.0342   -3.2337    0.8548 C.3     1  UNL1        0.1821
      6 C2*         2.7277   -3.1869   -0.5076 C.3     1  UNL1        0.1299
      7 O2*         3.2782   -4.4230   -0.9453 O.3     1  UNL1       -0.3846
      8 C3*         3.7831   -2.1099   -0.2813 C.3     1  UNL1        0.1136
      9 O3*         4.9301   -2.6913    0.3464 O.3     1  UNL1       -0.3864
     10 N           0.6576   -3.7143    0.7727 N.ar    1  UNL1       -0.2155
     11 N           0.3918   -5.0372    0.9414 N.ar    1  UNL1       -0.1593
     12 C          -0.9180   -5.1423    0.6715 C.ar    1  UNL1        0.1426
     13 BR         -1.8184   -6.7919    0.7374 Br      1  UNL1       -0.0260
     14 C          -1.5103   -3.9123    0.3616 C.ar    1  UNL1        0.1171
     15 C          -0.4763   -3.0205    0.4656 C.ar    1  UNL1        0.1469
     16 N          -0.6576   -1.7016    0.2750 N.ar    1  UNL1       -0.3304
     17 C          -1.9436   -1.3140   -0.0258 C.ar    1  UNL1        0.0988
     18 N          -2.9744   -2.0805   -0.1726 N.ar    1  UNL1       -0.1989
     19 C          -2.8450   -3.4624    0.0081 C.ar    1  UNL1        0.2849
     20 O          -3.7848   -4.2327   -0.1131 O.2     1  UNL1       -0.2650
     21 H5*         2.2792    1.1942    1.4640 H       1  UNL1        0.2095
     22 H5*1        1.7508   -0.3308   -0.8724 H       1  UNL1        0.0584
     23 H5*2        3.2074    0.6424   -0.5950 H       1  UNL1        0.0584
     24 H4*         3.7505   -0.7450    1.4320 H       1  UNL1        0.0647
     25 H1*         2.5597   -3.8665    1.5805 H       1  UNL1        0.0881
     26 H2*         2.0275   -2.8486   -1.2799 H       1  UNL1        0.0666
     27 H2*         4.2182   -4.2784   -1.1603 H       1  UNL1        0.2101
     28 H3*         4.1253   -1.6603   -1.2177 H       1  UNL1        0.0647
     29 H3*         5.5828   -1.9867    0.5144 H       1  UNL1        0.2100
     30 H           0.0213   -0.9969    0.5642 H       1  UNL1        0.1682
     31 H          -2.0397   -0.2212   -0.1473 H       1  UNL1        0.1028
@<TRIPOS>BOND
     1     1    21    1
     2     2     1    1
     3     2    22    1
     4     2    23    1
     5     3     2    1
     6     3    24    1
     7     4     3    1
     8     5     4    1
     9     5    25    1
    10     6     5    1
    11     6    26    1
    12     7     6    1
    13     7    27    1
    14     8     6    1
    15     8     3    1
    16     8    28    1
    17     9     8    1
    18     9    29    1
    19    10     5    1
    20    11    10   ar
    21    12    11   ar
    22    13    12    1
    23    14    12   ar
    24    15    14   ar
    25    15    10   ar
    26    16    15   ar
    27    16    30    1
    28    17    16   ar
    29    17    31    1
    30    18    17   ar
    31    19    18   ar
    32    19    14   ar
    33    20    19    2
@<TRIPOS>MOLECULE
mol_687_akc_0006_29528290203_9
>668.sdf
 24 26 0 0 0
SMALL
GASTEIGER

@<TRIPOS>ATOM
      1 N          -3.2060   -1.0270   -1.5505 N.ar    1  UNL1       -0.3646
      2 C          -3.6476   -0.1294   -0.6010 C.ar    1  UNL1        0.0281
      3 C          -2.5356    0.4777   -0.0835 C.ar    1  UNL1        0.0925
      4 N          -2.4813    1.4237    0.8746 N.ar    1  UNL1       -0.2339
      5 C          -1.1759    1.7680    1.1056 C.ar    1  UNL1        0.1179
      6 N          -0.0131    1.3125    0.5299 N.ar    1  UNL1       -0.2287
      7 C          -0.0981    0.3508   -0.4325 C.ar    1  UNL1        0.1077
      8 C          -1.3951   -0.0559   -0.7271 C.ar    1  UNL1        0.0494
      9 C          -1.8274   -0.9935   -1.6343 C.ar    1  UNL1        0.0135
     10 S           1.3832   -0.2698   -1.1719 S.3     1  UNL1       -0.1112
     11 C           1.6865   -1.4709    0.1246 C.2     1  UNL1       -0.0283
     12 C           2.7147   -1.3817    1.0563 C.2     1  UNL1       -0.0556
     13 C           3.5695   -0.2843    1.1727 C.2     1  UNL1       -0.0608
     14 C           3.4464    0.8616    0.3852 C.2     1  UNL1       -0.0556
     15 C           2.4952    1.0179   -0.6167 C.2     1  UNL1       -0.0283
     16 H          -3.8067   -1.6233   -2.1057 H       1  UNL1        0.1648
     17 H          -4.6992   -0.0079   -0.3865 H       1  UNL1        0.0829
     18 H          -1.0340    2.5271    1.8716 H       1  UNL1        0.1047
     19 H          -1.2992   -1.6337   -2.3288 H       1  UNL1        0.0814
     20 H           1.0459   -2.3494    0.1350 H       1  UNL1        0.0689
     21 H           2.8438   -2.2073    1.7565 H       1  UNL1        0.0623
     22 H           4.3375   -0.3032    1.9450 H       1  UNL1        0.0618
     23 H           4.1134    1.6989    0.5902 H       1  UNL1        0.0623
     24 H           2.4363    1.9678   -1.1417 H       1  UNL1        0.0689
@<TRIPOS>BOND
     1     1    16    1
     2     2     1   ar
     3     2    17    1
     4     3     2   ar
     5     4     3   ar
     6     5     4   ar
     7     5    18    1
     8     6     5   ar
     9     7     6   ar
    10     8     7   ar
    11     8     3   ar
    12     9     8   ar
    13     9     1   ar
    14     9    19    1
    15    10     7    1
    16    11    10    2
    17    11    20    1
    18    12    11    1
    19    12    21    1
    20    13    12    2
    21    13    22    1
    22    14    13    1
    23    14    23    1
    24    15    14    2
    25    15    10    1
    26    15    24    1
@<TRIPOS>MOLECULE
mol_688_akc_0024_32058190062_x
>669.sdf
 32 34 0 0 0
SMALL
GASTEIGER

@<TRIPOS>ATOM
      1 C           0.4759   -1.9298   -0.3133 C.3     1  UNL1       -0.0201
      2 C           1.7431   -2.6593   -0.6224 C.ar    1  UNL1        0.0688
      3 C           3.0069   -2.2169   -0.2118 C.ar    1  UNL1        0.1289
      4 C           4.0929   -3.0094   -0.5557 C.ar    1  UNL1        0.1657
      5 N           4.0742   -4.1575   -1.2552 N.ar    1  UNL1       -0.2160
      6 C           2.8143   -4.4886   -1.6027 C.ar    1  UNL1        0.1187
      7 N           1.6681   -3.8238   -1.3333 N.ar    1  UNL1       -0.2383
      8 N           5.1769   -2.3695   -0.0186 N.ar    1  UNL1       -0.2879
      9 C           4.7182   -1.2342    0.5948 C.ar    1  UNL1        0.1003
     10 N           3.4102   -1.1101    0.4979 N.ar    1  UNL1       -0.2322
     11 C1*         6.5511   -2.8263   -0.0841 C.3     1  UNL1        0.1408
     12 C2*         7.3075   -2.3246   -1.3039 C.3     1  UNL1        0.0213
     13 C3*         8.7248   -2.2521   -0.7905 C.3     1  UNL1        0.0876
     14 C4*         8.5583   -1.8847    0.6831 C.3     1  UNL1        0.1100
     15 O4*         7.2617   -2.3728    1.0914 O.3     1  UNL1       -0.3484
     16 C5*         8.6351   -0.3759    0.9520 C.3     1  UNL1        0.0729
     17 O5*         7.7100    0.3488    0.1481 O.3     1  UNL1       -0.3924
     18 O3*         9.3032   -3.5566   -0.9140 O.3     1  UNL1       -0.3890
     19 H           0.3407   -1.8556    0.7702 H       1  UNL1        0.0293
     20 H           0.5090   -0.9208   -0.7354 H       1  UNL1        0.0293
     21 H          -0.3897   -2.4513   -0.7330 H       1  UNL1        0.0293
     22 H           2.7024   -5.4079   -2.1705 H       1  UNL1        0.1047
     23 H           5.3783   -0.5412    1.0997 H       1  UNL1        0.1030
     24 H1*         6.5441   -3.9218   -0.0454 H       1  UNL1        0.0840
     25 H2*1        6.9587   -1.3316   -1.6078 H       1  UNL1        0.0335
     26 H2*2        7.1823   -2.9984   -2.1579 H       1  UNL1        0.0335
     27 H3*         9.3544   -1.5568   -1.3535 H       1  UNL1        0.0621
     28 H4*         9.3017   -2.3917    1.3083 H       1  UNL1        0.0646
     29 H5*1        8.4021   -0.1697    2.0018 H       1  UNL1        0.0584
     30 H5*2        9.6389   -0.0024    0.7269 H       1  UNL1        0.0584
     31 H5*         7.7182    1.2719    0.4594 H       1  UNL1        0.2095
     32 H3*        10.2237   -3.5074   -0.6042 H       1  UNL1        0.2099
@<TRIPOS>BOND
     1     1    19    1
     2     1    20    1
     3     1    21    1
     4     2     1    1
     5     3     2   ar
     6     4     3   ar
     7     5     4   ar
     8     6     5   ar
     9     6    22    1
    10     7     6   ar
    11     7     2   ar
    12     8     4   ar
    13     9     8   ar
    14     9    23    1
    15    10     9   ar
    16    10     3   ar
    17    11     8    1
    18    11    24    1
    19    12    11    1
    20    12    25    1
    21    12    26    1
    22    13    12    1
    23    13    27    1
    24    14    13    1
    25    14    28    1
    26    15    14    1
    27    15    11    1
    28    16    14    1
    29    16    29    1
    30    16    30    1
    31    17    16    1
    32    17    31    1
    33    18    13    1
    34    18    32    1
@<TRIPOS>MOLECULE
mol_689_akc_0014_57938080364_4
>670.sdf
 49 51 0 0 0
SMALL
GASTEIGER

@<TRIPOS>ATOM
      1 C           4.1133   -3.9503    1.9734 C.3     1  UNL1       -0.0626
      2 C           4.5737   -2.6517    1.3023 C.3     1  UNL1       -0.0460
      3 C           3.4146   -2.0474    0.5088 C.3     1  UNL1       -0.0626
      4 C           5.1267   -1.6778    2.3621 C.3     1  UNL1       -0.0417
      5 C           5.6419   -0.3592    1.7731 C.3     1  UNL1       -0.0060
      6 S           6.2257    0.7193    3.1241 S.3     1  UNL1       -0.1581
      7 C           6.7981    2.1824    2.1714 C.3     1  UNL1        0.0227
      8 C           7.3314    3.2488    3.1506 C.3     1  UNL1        0.1005
      9 O           8.1577    2.6575    4.1503 O.3     1  UNL1       -0.3318
     10 C           9.5216    3.1191    4.1325 C.3     1  UNL1        0.2010
     11 C           9.6516    3.7373    2.7300 C.3     1  UNL1        0.1462
     12 O          10.6216    4.7803    2.6591 O.3     1  UNL1       -0.3825
     13 C           8.2225    4.3229    2.5578 C.3     1  UNL1        0.1143
     14 O           8.1484    5.4899    3.4049 O.3     1  UNL1       -0.3864
     15 N          10.2276    1.9321    4.6099 N.2     1  UNL1       -0.3237
     16 C           9.4896    1.5336    5.8502 C.2     1  UNL1        0.1510
     17 N           9.7974    0.3693    6.2709 N.2     1  UNL1       -0.2035
     18 C          10.9092    0.0815    5.5645 C.2     1  UNL1        0.2410
     19 C          11.5711   -1.0576    5.3793 C.2     1  UNL1        0.3466
     20 N          10.9712   -2.2327    5.8074 N.pl3   1  UNL1       -0.2445
     21 N          12.8097   -1.0690    4.7570 N.2     1  UNL1       -0.0066
     22 C          13.2169    0.0396    4.2182 C.2     1  UNL1        0.2865
     23 N          12.4737    1.2213    4.0963 N.pl3   1  UNL1       -0.1736
     24 C          11.2616    1.2296    4.7066 C.2     1  UNL1        0.2780
     25 H           3.7393   -4.6621    1.2294 H       1  UNL1        0.0232
     26 H           4.9402   -4.4305    2.5065 H       1  UNL1        0.0232
     27 H           3.3093   -3.7622    2.6931 H       1  UNL1        0.0232
     28 H           5.3788   -2.9022    0.6001 H       1  UNL1        0.0296
     29 H           2.6209   -1.6933    1.1758 H       1  UNL1        0.0232
     30 H           3.7488   -1.2045   -0.1029 H       1  UNL1        0.0232
     31 H           2.9804   -2.7857   -0.1740 H       1  UNL1        0.0232
     32 H           4.3427   -1.4762    3.1047 H       1  UNL1        0.0276
     33 H           5.9455   -2.1785    2.8974 H       1  UNL1        0.0276
     34 H           6.4711   -0.5533    1.0855 H       1  UNL1        0.0376
     35 H           4.8495    0.1708    1.2387 H       1  UNL1        0.0376
     36 H           7.5755    1.8479    1.4797 H       1  UNL1        0.0402
     37 H           5.9631    2.5983    1.5953 H       1  UNL1        0.0402
     38 H           6.4829    3.6703    3.7035 H       1  UNL1        0.0632
     39 H           9.6459    3.8984    4.8973 H       1  UNL1        0.1107
     40 H           9.8540    2.9885    1.9535 H       1  UNL1        0.0688
     41 H          10.1561    5.6308    2.7226 H       1  UNL1        0.2102
     42 H           7.9614    4.6367    1.5448 H       1  UNL1        0.0648
     43 H           7.2073    5.7409    3.5156 H       1  UNL1        0.2100
     44 H           8.6984    2.1506    6.3196 H       1  UNL1        0.1276
     45 H          11.6342   -2.9346    6.1261 H       1  UNL1        0.2885
     46 H          10.1867   -2.0830    6.4416 H       1  UNL1        0.2885
     47 H          14.2471    0.1113    3.8032 H       1  UNL1        0.1603
     48 H          12.9418    2.0358    3.7392 H       1  UNL1        0.3013
     49 H           9.7079    1.2912    4.0045 H       1  UNL1        0.2681
@<TRIPOS>BOND
     1     1    25    1
     2     1    26    1
     3     1    27    1
     4     2     1    1
     5     2    28    1
     6     3     2    1
     7     3    29    1
     8     3    30    1
     9     3    31    1
    10     4     2    1
    11     4    32    1
    12     4    33    1
    13     5     4    1
    14     5    34    1
    15     5    35    1
    16     6     5    1
    17     7     6    1
    18     7    36    1
    19     7    37    1
    20     8     7    1
    21     8    38    1
    22     9     8    1
    23    10     9    1
    24    10    39    1
    25    11    10    1
    26    11    40    1
    27    12    11    1
    28    12    41    1
    29    13    11    1
    30    13     8    1
    31    13    42    1
    32    14    13    1
    33    14    43    1
    34    15    10    1
    35    16    15    1
    36    16    44    1
    37    17    16    2
    38    18    17    1
    39    19    18    2
    40    20    19    1
    41    20    45    1
    42    20    46    1
    43    21    19    1
    44    22    21    2
    45    22    47    1
    46    23    22    1
    47    23    48    1
    48    24    23    1
    49    24    15    2
    50    24    18    1
    51    15    49    1
@<TRIPOS>MOLECULE
mol_68_akc_jhet3812
>67.sdf
 59 63 0 0 0
SMALL
GASTEIGER

@<TRIPOS>ATOM
      1 F           1.9288    0.1018   -0.2020 F       1  UNL1       -0.2016
      2 C           0.7883    0.0074    0.4960 C.ar    1  UNL1        0.1669
      3 C           0.1079    1.1976    0.7387 C.ar    1  UNL1        0.0074
      4 C          -1.0830    1.1680    1.4615 C.ar    1  UNL1        0.1291
      5 C          -1.5895   -0.0482    1.9391 C.ar    1  UNL1       -0.0278
      6 C          -0.8918   -1.2409    1.6837 C.ar    1  UNL1       -0.0149
      7 C           0.3057   -1.2278    0.9606 C.ar    1  UNL1        0.1557
      8 O           0.8930   -2.4640    0.7853 O.3     1  UNL1       -0.4881
      9 C           2.1311   -2.4487    0.0748 C.3     1  UNL1        0.1028
     10 C           2.8487   -3.8064   -0.0230 C.3     1  UNL1        0.0723
     11 C           4.1592   -3.5274   -0.8159 C.3     1  UNL1        0.0388
     12 N           5.0292   -4.6451   -1.1115 N.ar    1  UNL1       -0.3358
     13 C           4.9459   -5.4622   -2.2048 C.ar    1  UNL1        0.0240
     14 C           6.0366   -6.2935   -2.1079 C.ar    1  UNL1        0.0454
     15 N           6.7935   -5.9787   -1.0100 N.ar    1  UNL1       -0.2441
     16 C           6.1703   -4.9741   -0.4384 C.ar    1  UNL1        0.0959
     17 C           3.1200   -4.3534    1.4090 C.3     1  UNL1       -0.0110
     18 C           2.9763   -5.8325    1.2672 C.ar    1  UNL1       -0.0373
     19 C           2.3488   -6.1858    0.0771 C.ar    1  UNL1        0.0033
     20 C           2.1740   -7.5093   -0.2919 C.ar    1  UNL1       -0.0525
     21 C           2.6253   -8.4972    0.5884 C.ar    1  UNL1       -0.0611
     22 C           3.2181   -8.1463    1.8141 C.ar    1  UNL1       -0.0615
     23 C           3.3904   -6.8059    2.1631 C.ar    1  UNL1       -0.0579
     24 C           2.1009   -4.9636   -0.6951 C.2     1  UNL1        0.0988
     25 N           1.4461   -4.9855   -1.8168 N.2     1  UNL1       -0.0879
     26 O           1.4436   -3.7346   -2.4461 O.2     1  UNL1       -0.3887
     27 C           0.7878   -3.8423   -3.7201 C.3     1  UNL1        0.1443
     28 C           0.7865   -2.4991   -4.4215 C.ar    1  UNL1        0.0118
     29 C           0.8122   -2.3848   -5.8218 C.ar    1  UNL1        0.0475
     30 CL          0.7958   -3.7705   -6.8538 Cl      1  UNL1       -0.0831
     31 C           0.8280   -1.1262   -6.4398 C.ar    1  UNL1       -0.0416
     32 C           0.7917    0.0379   -5.6719 C.ar    1  UNL1       -0.0420
     33 C           0.7150   -0.0604   -4.2876 C.ar    1  UNL1        0.0414
     34 CL          0.6301    1.3652   -3.3283 Cl      1  UNL1       -0.0835
     35 C           0.6994   -1.3114   -3.6678 C.ar    1  UNL1       -0.0355
     36 N          -1.7987    2.4215    1.7242 N.pl3   1  UNL1        0.0565
     37 O          -1.2911    3.4735    1.3056 O.2     1  UNL1       -0.1261
     38 O          -2.8634    2.3552    2.3499 O.2     1  UNL1       -0.1261
     39 H           0.5295    2.1250    0.3546 H       1  UNL1        0.0670
     40 H          -2.5180   -0.0888    2.5058 H       1  UNL1        0.0641
     41 H          -1.2902   -2.1829    2.0564 H       1  UNL1        0.0656
     42 H           1.9633   -2.0433   -0.9247 H       1  UNL1        0.0707
     43 H           2.8174   -1.7779    0.6116 H       1  UNL1        0.0707
     44 H           3.9229   -3.0703   -1.7860 H       1  UNL1        0.0502
     45 H           4.7688   -2.7909   -0.2753 H       1  UNL1        0.0502
     46 H           4.1472   -5.3967   -2.9304 H       1  UNL1        0.0825
     47 H           6.3233   -7.0932   -2.7795 H       1  UNL1        0.0845
     48 H           6.5072   -4.4507    0.4472 H       1  UNL1        0.1029
     49 H           4.1147   -4.0765    1.7734 H       1  UNL1        0.0324
     50 H           2.3751   -4.0058    2.1341 H       1  UNL1        0.0324
     51 H           1.7467   -7.7723   -1.2539 H       1  UNL1        0.0624
     52 H           2.5399   -9.5462    0.3180 H       1  UNL1        0.0618
     53 H           3.5678   -8.9286    2.4862 H       1  UNL1        0.0618
     54 H           3.8646   -6.5403    3.1039 H       1  UNL1        0.0620
     55 H           1.3368   -4.5883   -4.3034 H       1  UNL1        0.0775
     56 H          -0.2458   -4.1751   -3.5734 H       1  UNL1        0.0775
     57 H           0.8622   -1.0472   -7.5238 H       1  UNL1        0.0633
     58 H           0.8114    1.0094   -6.1583 H       1  UNL1        0.0633
     59 H           0.6162   -1.3603   -2.5861 H       1  UNL1        0.0636
@<TRIPOS>BOND
     1     2     1    1
     2     3     2   ar
     3     3    39    1
     4     4     3   ar
     5     5     4   ar
     6     5    40    1
     7     6     5   ar
     8     6    41    1
     9     7     6   ar
    10     7     2   ar
    11     8     7    1
    12     9     8    1
    13     9    42    1
    14     9    43    1
    15    10     9    1
    16    11    10    1
    17    11    44    1
    18    11    45    1
    19    12    11    1
    20    13    12   ar
    21    13    46    1
    22    14    13   ar
    23    14    47    1
    24    15    14   ar
    25    16    15   ar
    26    16    12   ar
    27    16    48    1
    28    17    10    1
    29    17    49    1
    30    17    50    1
    31    18    17    1
    32    19    18   ar
    33    20    19   ar
    34    20    51    1
    35    21    20   ar
    36    21    52    1
    37    22    21   ar
    38    22    53    1
    39    23    22   ar
    40    23    18   ar
    41    23    54    1
    42    24    19    1
    43    24    10    1
    44    25    24    2
    45    26    25    1
    46    27    26    1
    47    27    55    1
    48    27    56    1
    49    28    27    1
    50    29    28   ar
    51    30    29    1
    52    31    29   ar
    53    31    57    1
    54    32    31   ar
    55    32    58    1
    56    33    32   ar
    57    34    33    1
    58    35    33   ar
    59    35    28   ar
    60    35    59    1
    61    36     4    1
    62    37    36    2
    63    38    36    2
@<TRIPOS>MOLECULE
mol_690_akc_jprmcm2022100176
>671.sdf
 45 47 0 0 0
SMALL
GASTEIGER

@<TRIPOS>ATOM
      1 C           3.9378   -4.0327    0.0317 C.ar    1  UNL1        0.1623
      2 C           4.2663   -3.0920    0.9976 C.ar    1  UNL1        0.2006
      3 C           3.2607   -2.3854    1.6409 C.ar    1  UNL1        0.1623
      4 C           1.9242   -2.6341    1.3477 C.ar    1  UNL1       -0.0106
      5 C           1.5778   -3.6139    0.3960 C.ar    1  UNL1       -0.0115
      6 C           2.6076   -4.3071   -0.2684 C.ar    1  UNL1       -0.0106
      7 C          -3.8078   -5.3806   -3.1315 C.ar    1  UNL1        0.1623
      8 C          -2.6880   -5.0636   -2.3661 C.ar    1  UNL1       -0.0106
      9 C          -1.7438   -6.0604   -2.0554 C.ar    1  UNL1       -0.0115
     10 C          -1.9366   -7.3589   -2.5668 C.ar    1  UNL1       -0.0106
     11 C          -3.0572   -7.6542   -3.3339 C.ar    1  UNL1        0.1623
     12 C          -4.0072   -6.6764   -3.5919 C.ar    1  UNL1        0.2006
     13 O          -0.1524   -4.4465   -1.1232 O.3     1  UNL1       -0.3636
     14 C           0.1152   -3.9907    0.2129 C.3     1  UNL1        0.0875
     15 C          -0.2585   -5.1124    1.1885 C.3     1  UNL1       -0.0081
     16 C          -1.0248   -6.1186    0.3447 C.3     1  UNL1       -0.0081
     17 C          -0.5970   -5.8096   -1.0913 C.3     1  UNL1        0.0875
     18 C          -1.0834   -4.6015    2.3687 C.3     1  UNL1       -0.0594
     19 C          -0.7167   -7.5598    0.7472 C.3     1  UNL1       -0.0594
     20 O          -4.7392   -4.4156   -3.3901 O.3     1  UNL1       -0.5032
     21 O          -5.1711   -6.9773   -4.2453 O.3     1  UNL1       -0.5009
     22 O          -3.2067   -8.9196   -3.8214 O.3     1  UNL1       -0.5032
     23 O           4.9291   -4.7024   -0.6253 O.3     1  UNL1       -0.5032
     24 O           5.5674   -2.8761    1.3617 O.3     1  UNL1       -0.5009
     25 O           3.5746   -1.4661    2.6000 O.3     1  UNL1       -0.5032
     26 H           1.1557   -2.0884    1.8898 H       1  UNL1        0.0659
     27 H           2.3737   -5.0703   -1.0053 H       1  UNL1        0.0659
     28 H          -2.5693   -4.0513   -1.9884 H       1  UNL1        0.0659
     29 H          -1.2200   -8.1496   -2.3517 H       1  UNL1        0.0659
     30 H          -0.5038   -3.0967    0.3561 H       1  UNL1        0.0649
     31 H           0.6430   -5.5855    1.6013 H       1  UNL1        0.0330
     32 H          -2.1037   -5.9534    0.4675 H       1  UNL1        0.0330
     33 H           0.2659   -6.4140   -1.3962 H       1  UNL1        0.0649
     34 H          -1.3567   -5.4253    3.0358 H       1  UNL1        0.0233
     35 H          -0.5198   -3.8672    2.9521 H       1  UNL1        0.0233
     36 H          -2.0090   -4.1221    2.0303 H       1  UNL1        0.0233
     37 H          -0.9437   -7.7264    1.8047 H       1  UNL1        0.0233
     38 H          -1.3086   -8.2694    0.1621 H       1  UNL1        0.0233
     39 H           0.3419   -7.7971    0.5896 H       1  UNL1        0.0233
     40 H          -5.4143   -4.8566   -3.9389 H       1  UNL1        0.2923
     41 H          -5.3985   -7.8865   -3.9711 H       1  UNL1        0.2924
     42 H          -3.5776   -8.8270   -4.7178 H       1  UNL1        0.2923
     43 H           5.3616   -4.0332   -1.1883 H       1  UNL1        0.2923
     44 H           6.0553   -3.6632    1.0501 H       1  UNL1        0.2924
     45 H           4.5513   -1.4804    2.6486 H       1  UNL1        0.2923
@<TRIPOS>BOND
     1     1     2   ar
     2     2     3   ar
     3     3     4   ar
     4     4     5   ar
     5     5     6   ar
     6     1     6   ar
     7     7     8   ar
     8     8     9   ar
     9     9    10   ar
    10    10    11   ar
    11    11    12   ar
    12     7    12   ar
    13    13    14    1
    14    14    15    1
    15    15    16    1
    16    16    17    1
    17    13    17    1
    18    17     9    1
    19    16    19    1
    20     7    20    1
    21    12    21    1
    22    11    22    1
    23     1    23    1
    24     2    24    1
    25     3    25    1
    26     4    26    1
    27     6    27    1
    28     8    28    1
    29    10    29    1
    30    16    32    1
    31    17    33    1
    32    18    34    1
    33    18    35    1
    34    18    36    1
    35    19    37    1
    36    19    38    1
    37    19    39    1
    38    20    40    1
    39    21    41    1
    40    22    42    1
    41    23    43    1
    42    24    44    1
    43    25    45    1
    44    14    30    1
    45    14     5    1
    46    15    31    1
    47    15    18    1
@<TRIPOS>MOLECULE
mol_691_akc_fmb_2020_0263
>672.sdf
 76 80 0 0 0
SMALL
GASTEIGER

@<TRIPOS>ATOM
      1 C          -8.7768    3.9469    0.4795 C.ar    1  UNL1       -0.0598
      2 C          -7.3920    4.0736    0.3993 C.ar    1  UNL1       -0.0611
      3 C          -6.5725    2.9400    0.3370 C.ar    1  UNL1       -0.0520
      4 C          -7.1598    1.6588    0.3486 C.ar    1  UNL1        0.0075
      5 C          -8.5474    1.5676    0.4332 C.ar    1  UNL1        0.0475
      6 C          -9.3828    2.6882    0.5039 C.ar    1  UNL1       -0.0378
      7 N          -8.8587    0.2295    0.4422 N.ar    1  UNL1       -0.3525
      8 C          -7.7335   -0.5507    0.2799 C.ar    1  UNL1        0.0738
      9 C          -7.5917   -1.9430    0.1498 C.ar    1  UNL1        0.0957
     10 N          -6.3278   -2.4552    0.1251 N.ar    1  UNL1       -0.2400
     11 C          -5.2633   -1.6016    0.1657 C.ar    1  UNL1        0.1267
     12 C          -5.3557   -0.2170    0.2185 C.ar    1  UNL1       -0.0214
     13 C          -6.6462    0.3231    0.2852 C.ar    1  UNL1        0.0117
     14 C          -3.8964   -2.2337    0.1716 C.2     1  UNL1        0.2625
     15 O          -2.8758   -1.5520    0.1691 O.2     1  UNL1       -0.2685
     16 N          -3.8944   -3.6126    0.1927 N.am    1  UNL1       -0.3086
     17 C          -8.7273   -2.8727    0.0407 C.ar    1  UNL1        0.0026
     18 C          -9.8910   -2.5398   -0.6792 C.ar    1  UNL1       -0.0490
     19 C         -10.9960   -3.3986   -0.7409 C.ar    1  UNL1       -0.0193
     20 C         -10.9525   -4.6377   -0.1108 C.ar    1  UNL1        0.1201
     21 C          -9.7902   -5.0091    0.5663 C.ar    1  UNL1       -0.0193
     22 C          -8.6930   -4.1393    0.6427 C.ar    1  UNL1       -0.0490
     23 O         -11.9589   -5.5628   -0.0943 O.3     1  UNL1       -0.4951
     24 C         -13.1750   -5.1995   -0.7387 C.3     1  UNL1        0.0788
     25 C          -2.6750   -4.3968    0.0994 C.3     1  UNL1        0.0275
     26 C          -2.8171   -5.7677    0.7786 C.3     1  UNL1        0.0274
     27 N          -1.5906   -6.5473    0.6667 N.pl3   1  UNL1       -0.3118
     28 N          -2.8183   -8.4737    1.2315 N.ar    1  UNL1       -0.1811
     29 C          -1.6582   -7.8303    1.2070 C.ar    1  UNL1        0.2211
     30 N          -0.5226   -8.3353    1.6623 N.ar    1  UNL1       -0.1811
     31 C          -0.5865   -9.5785    2.1234 C.ar    1  UNL1        0.2212
     32 N          -1.6971  -10.2987    2.1744 N.ar    1  UNL1       -0.1810
     33 C          -2.7892   -9.6993    1.7290 C.ar    1  UNL1        0.2212
     34 N           0.5572  -10.2295    2.5633 N.pl3   1  UNL1       -0.3110
     35 C           1.2586   -9.3168    4.7265 C.3     1  UNL1       -0.0469
     36 C           1.5829   -9.4484    3.2384 C.3     1  UNL1        0.0177
     37 C           2.9219  -10.1661    3.0589 C.3     1  UNL1       -0.0469
     38 N          -4.0238  -10.3307    1.7980 N.pl3   1  UNL1       -0.3110
     39 C          -5.3364  -12.2923    2.2984 C.3     1  UNL1       -0.0469
     40 C          -4.0698  -11.7740    1.6147 C.3     1  UNL1        0.0177
     41 C          -4.1002  -12.1211    0.1266 C.3     1  UNL1       -0.0469
     42 H          -9.3962    4.8399    0.5253 H       1  UNL1        0.0618
     43 H          -6.9409    5.0633    0.3821 H       1  UNL1        0.0618
     44 H          -5.4940    3.0517    0.2712 H       1  UNL1        0.0624
     45 H         -10.4620    2.5928    0.5691 H       1  UNL1        0.0638
     46 H          -9.7965   -0.1284    0.5450 H       1  UNL1        0.1660
     47 H          -4.4712    0.4105    0.2307 H       1  UNL1        0.0647
     48 H          -4.8014   -4.0506    0.0341 H       1  UNL1        0.1491
     49 H          -9.9507   -1.6033   -1.2299 H       1  UNL1        0.0625
     50 H         -11.8661   -3.0692   -1.2989 H       1  UNL1        0.0654
     51 H          -9.7360   -5.9845    1.0447 H       1  UNL1        0.0654
     52 H          -7.8064   -4.4598    1.1873 H       1  UNL1        0.0625
     53 H         -13.6185   -4.3111   -0.2760 H       1  UNL1        0.0660
     54 H         -13.0224   -5.0498   -1.8129 H       1  UNL1        0.0660
     55 H         -13.8818   -6.0256   -0.6152 H       1  UNL1        0.0660
     56 H          -2.4459   -4.5183   -0.9658 H       1  UNL1        0.0477
     57 H          -1.8468   -3.8354    0.5465 H       1  UNL1        0.0477
     58 H          -3.0784   -5.6222    1.8336 H       1  UNL1        0.0477
     59 H          -3.6525   -6.2927    0.2972 H       1  UNL1        0.0477
     60 H          -0.7499   -6.1184    1.0400 H       1  UNL1        0.1490
     61 H           0.2580  -11.0743    3.0393 H       1  UNL1        0.1492
     62 H           1.1924  -10.2990    5.2091 H       1  UNL1        0.0247
     63 H           2.0342   -8.7412    5.2433 H       1  UNL1        0.0247
     64 H           0.3017   -8.8078    4.8808 H       1  UNL1        0.0247
     65 H           1.6863   -8.4487    2.7999 H       1  UNL1        0.0493
     66 H           3.1613  -10.2812    1.9960 H       1  UNL1        0.0247
     67 H           3.7338   -9.6008    3.5287 H       1  UNL1        0.0247
     68 H           2.9040  -11.1679    3.5035 H       1  UNL1        0.0247
     69 H          -4.6654   -9.7935    1.2282 H       1  UNL1        0.1492
     70 H          -6.2383  -11.8513    1.8588 H       1  UNL1        0.0247
     71 H          -5.4110  -13.3812    2.2093 H       1  UNL1        0.0247
     72 H          -5.3319  -12.0392    3.3645 H       1  UNL1        0.0247
     73 H          -3.2151  -12.2711    2.0876 H       1  UNL1        0.0493
     74 H          -3.1986  -11.7646   -0.3822 H       1  UNL1        0.0247
     75 H          -4.1627  -13.2048   -0.0179 H       1  UNL1        0.0247
     76 H          -4.9632  -11.6645   -0.3721 H       1  UNL1        0.0247
@<TRIPOS>BOND
     1     1     2   ar
     2     2     3   ar
     3     3     4   ar
     4     4     5   ar
     5     5     6   ar
     6     1     6   ar
     7     5     7   ar
     8     7     8   ar
     9     8     9   ar
    10     9    10   ar
    11    10    11   ar
    12    11    12   ar
    13    12    13   ar
    14     4    13   ar
    15     8    13   ar
    16    14    15    2
    17    14    16   am
    18    11    14    1
    19    17    18   ar
    20    18    19   ar
    21    19    20   ar
    22    20    21   ar
    23    21    22   ar
    24    17    22   ar
    25    23    24    1
    26    20    23    1
    27     9    17    1
    28    25    26    1
    29    28    29   ar
    30    29    30   ar
    31    30    31   ar
    32    31    32   ar
    33    32    33   ar
    34    28    33   ar
    35    35    36    1
    36    36    37    1
    37    34    36    1
    38    31    34    1
    39    39    40    1
    40    40    41    1
    41    38    40    1
    42    33    38    1
    43    27    29    1
    44    26    27    1
    45    16    25    1
    46     1    42    1
    47     2    43    1
    48     3    44    1
    49     6    45    1
    50     7    46    1
    51    12    47    1
    52    16    48    1
    53    18    49    1
    54    19    50    1
    55    21    51    1
    56    22    52    1
    57    24    53    1
    58    24    54    1
    59    24    55    1
    60    25    56    1
    61    25    57    1
    62    26    58    1
    63    26    59    1
    64    27    60    1
    65    34    61    1
    66    35    62    1
    67    35    63    1
    68    35    64    1
    69    36    65    1
    70    37    66    1
    71    37    67    1
    72    37    68    1
    73    38    69    1
    74    39    70    1
    75    39    71    1
    76    39    72    1
    77    40    73    1
    78    41    74    1
    79    41    75    1
    80    41    76    1
@<TRIPOS>MOLECULE
mol_692_akc_fmb_2020_0263
>673.sdf
 52 56 0 0 0
SMALL
GASTEIGER

@<TRIPOS>ATOM
      1 C           3.5316    0.2730    0.0462 C.ar    1  UNL1       -0.0598
      2 C           3.1656   -1.0702    0.0161 C.ar    1  UNL1       -0.0611
      3 C           1.8166   -1.4440    0.0345 C.ar    1  UNL1       -0.0520
      4 C           0.8217   -0.4451    0.0749 C.ar    1  UNL1        0.0075
      5 C           1.2225    0.8878    0.1080 C.ar    1  UNL1        0.0475
      6 C           2.5646    1.2811    0.0989 C.ar    1  UNL1       -0.0378
      7 N           0.0782    1.6450    0.1575 N.ar    1  UNL1       -0.3525
      8 C          -1.0522    0.8604    0.0658 C.ar    1  UNL1        0.0738
      9 C          -2.4114    1.2078   -0.0111 C.ar    1  UNL1        0.0957
     10 N          -3.3276    0.1994    0.0159 N.ar    1  UNL1       -0.2400
     11 C          -2.8947   -1.0926    0.0577 C.ar    1  UNL1        0.1267
     12 C          -1.5637   -1.4864    0.0722 C.ar    1  UNL1       -0.0214
     13 C          -0.6099   -0.4623    0.0802 C.ar    1  UNL1        0.0117
     14 C          -3.9554   -2.1545    0.0709 C.2     1  UNL1        0.2627
     15 O          -3.6621   -3.3453    0.0611 O.2     1  UNL1       -0.2685
     16 N          -5.2482   -1.6828    0.0949 N.am    1  UNL1       -0.3060
     17 C          -2.9018    2.5888   -0.1336 C.ar    1  UNL1        0.0026
     18 C          -2.2236    3.5503   -0.9062 C.ar    1  UNL1       -0.0490
     19 C          -2.6632    4.8777   -0.9887 C.ar    1  UNL1       -0.0193
     20 C          -3.8202    5.2725   -0.3253 C.ar    1  UNL1        0.1201
     21 C          -4.5360    4.3235    0.4053 C.ar    1  UNL1       -0.0193
     22 C          -4.0837    3.0001    0.5010 C.ar    1  UNL1       -0.0490
     23 O          -4.3513    6.5322   -0.3238 O.3     1  UNL1       -0.4951
     24 C          -3.6214    7.5361   -1.0205 C.3     1  UNL1        0.0788
     25 C          -6.4005   -2.5508    0.0704 C.3     1  UNL1        0.0372
     26 C          -7.2573   -2.3798    1.2983 C.ar    1  UNL1       -0.0303
     27 C          -8.8643   -2.1272    3.5866 C.ar    1  UNL1       -0.0617
     28 C          -9.3786   -1.8012    2.3329 C.ar    1  UNL1       -0.0615
     29 C          -8.5799   -1.9264    1.1940 C.ar    1  UNL1       -0.0571
     30 C          -6.7532   -2.7087    2.5657 C.ar    1  UNL1       -0.0571
     31 C          -7.5520   -2.5809    3.7034 C.ar    1  UNL1       -0.0615
     32 H           4.5849    0.5435    0.0281 H       1  UNL1        0.0618
     33 H           3.9339   -1.8384   -0.0245 H       1  UNL1        0.0618
     34 H           1.5423   -2.4944    0.0060 H       1  UNL1        0.0624
     35 H           2.8535    2.3262    0.1242 H       1  UNL1        0.0638
     36 H           0.0714    2.6533    0.2350 H       1  UNL1        0.1660
     37 H          -1.2817   -2.5331    0.0842 H       1  UNL1        0.0647
     38 H          -5.3709   -0.6750    0.1104 H       1  UNL1        0.1494
     39 H          -1.3441    3.2744   -1.4841 H       1  UNL1        0.0625
     40 H          -2.0824    5.5694   -1.5897 H       1  UNL1        0.0654
     41 H          -5.4550    4.6138    0.9094 H       1  UNL1        0.0654
     42 H          -4.6650    2.2878    1.0845 H       1  UNL1        0.0625
     43 H          -2.6184    7.6617   -0.5984 H       1  UNL1        0.0660
     44 H          -3.5733    7.3153   -2.0922 H       1  UNL1        0.0660
     45 H          -4.1533    8.4845   -0.8996 H       1  UNL1        0.0660
     46 H          -6.9649   -2.2937   -0.8325 H       1  UNL1        0.0512
     47 H          -6.1026   -3.6012   -0.0216 H       1  UNL1        0.0512
     48 H          -9.4873   -2.0323    4.4720 H       1  UNL1        0.0618
     49 H         -10.4046   -1.4542    2.2412 H       1  UNL1        0.0618
     50 H          -9.0015   -1.6750    0.2234 H       1  UNL1        0.0621
     51 H          -5.7326   -3.0739    2.6664 H       1  UNL1        0.0621
     52 H          -7.1506   -2.8409    4.6792 H       1  UNL1        0.0618
@<TRIPOS>BOND
     1     1     2   ar
     2     2     3   ar
     3     3     4   ar
     4     4     5   ar
     5     5     6   ar
     6     1     6   ar
     7     5     7   ar
     8     7     8   ar
     9     8     9   ar
    10     9    10   ar
    11    10    11   ar
    12    11    12   ar
    13    12    13   ar
    14     4    13   ar
    15     8    13   ar
    16    14    15    2
    17    14    16   am
    18    11    14    1
    19    17    18   ar
    20    18    19   ar
    21    19    20   ar
    22    20    21   ar
    23    21    22   ar
    24    17    22   ar
    25    23    24    1
    26    20    23    1
    27     9    17    1
    28    25    26    1
    29    16    25    1
    30    27    28   ar
    31    28    29   ar
    32    30    31   ar
    33    27    31   ar
    34    29    26   ar
    35    26    30   ar
    36     1    32    1
    37     2    33    1
    38     3    34    1
    39     6    35    1
    40     7    36    1
    41    12    37    1
    42    16    38    1
    43    18    39    1
    44    19    40    1
    45    21    41    1
    46    22    42    1
    47    24    43    1
    48    24    44    1
    49    24    45    1
    50    25    46    1
    51    25    47    1
    52    27    48    1
    53    28    49    1
    54    29    50    1
    55    30    51    1
    56    31    52    1
@<TRIPOS>MOLECULE
mol_693_akc_jexppara2022108383
>674.sdf
 35 37 0 0 0
SMALL
GASTEIGER

@<TRIPOS>ATOM
      1 C           1.2678    0.0894   -0.2154 C.3     1  UNL1        0.0790
      2 O           0.4475    1.2271   -0.4685 O.2     1  UNL1       -0.4912
      3 C           0.7907    2.3836    0.2077 C.2     1  UNL1        0.1702
      4 C           2.0218    2.6716    0.6513 C.2     1  UNL1        0.0309
      5 C           2.3433    3.9032    1.3845 C.2     1  UNL1        0.1862
      6 O           3.5025    4.1107    1.7206 O.2     1  UNL1       -0.2875
      7 C           1.2387    4.8418    1.7026 C.2     1  UNL1        0.0097
      8 C           0.0090    4.5718    1.2450 C.2     1  UNL1       -0.0041
      9 C          -0.3128    3.3632    0.4530 C.2     1  UNL1        0.2207
     10 O          -1.4571    3.1900    0.0522 O.2     1  UNL1       -0.2840
     11 C           1.5535    6.0699    2.5332 C.3     1  UNL1        0.0261
     12 C           2.0894    5.7218    3.9294 C.3     1  UNL1       -0.0142
     13 C           2.6846    6.9243    4.6043 C.ar    1  UNL1       -0.0048
     14 C           2.9488    8.1008    3.8929 C.ar    1  UNL1        0.1272
     15 C           3.5048    9.2071    4.5359 C.ar    1  UNL1        0.0218
     16 C           3.8253    9.1214    5.8863 C.ar    1  UNL1        0.1203
     17 C           3.5898    7.9561    6.6041 C.ar    1  UNL1       -0.0197
     18 C           3.0204    6.8560    5.9636 C.ar    1  UNL1       -0.0516
     19 O           4.3842   10.1737    6.5522 O.3     1  UNL1       -0.5066
     20 O           2.6572    8.2604    2.5639 O.3     1  UNL1       -0.4910
     21 C           2.5322    7.0260    1.8445 C.3     1  UNL1        0.0968
     22 H           0.8380   -0.7604   -0.7573 H       1  UNL1        0.0660
     23 H           1.2639   -0.1507    0.8514 H       1  UNL1        0.0660
     24 H           2.2857    0.2337   -0.5845 H       1  UNL1        0.0660
     25 H           2.8757    2.0273    0.4881 H       1  UNL1        0.0694
     26 H          -0.8362    5.2247    1.4381 H       1  UNL1        0.0661
     27 H           0.6229    6.6363    2.6917 H       1  UNL1        0.0386
     28 H           1.2712    5.3186    4.5401 H       1  UNL1        0.0321
     29 H           2.8693    4.9539    3.8906 H       1  UNL1        0.0321
     30 H           3.6910   10.1116    3.9669 H       1  UNL1        0.0691
     31 H           3.8512    7.9017    7.6565 H       1  UNL1        0.0654
     32 H           2.8436    5.9433    6.5292 H       1  UNL1        0.0623
     33 H           4.5043   10.9041    5.9241 H       1  UNL1        0.2921
     34 H           3.5326    6.5996    1.7102 H       1  UNL1        0.0703
     35 H           2.1588    7.2838    0.8463 H       1  UNL1        0.0703
@<TRIPOS>BOND
     1     1     2    1
     2     2     3    1
     3     3     4    2
     4     4     5    1
     5     5     6    2
     6     5     7    1
     7     7     8    2
     8     8     9    1
     9     3     9    1
    10     9    10    2
    11    11     7    1
    12    11    12    1
    13    12    13    1
    14    13    14   ar
    15    14    15   ar
    16    15    16   ar
    17    16    17   ar
    18    17    18   ar
    19    13    18   ar
    20    16    19    1
    21    14    20    1
    22    20    21    1
    23    11    21    1
    24     1    22    1
    25     1    23    1
    26     1    24    1
    27     4    25    1
    28     8    26    1
    29    11    27    1
    30    12    28    1
    31    12    29    1
    32    15    30    1
    33    17    31    1
    34    18    32    1
    35    19    33    1
    36    21    34    1
    37    21    35    1
@<TRIPOS>MOLECULE
mol_694_akc_fmc_2017_0120
>675.sdf
 38 41 0 0 0
SMALL
GASTEIGER

@<TRIPOS>ATOM
      1 C           0.9842    1.4798   -0.0201 C.ar    1  UNL1       -0.0099
      2 C           0.9642   -1.2527   -0.0014 C.ar    1  UNL1        0.3199
      3 N           2.1254   -0.6630   -0.0065 N.ar    1  UNL1       -0.1949
      4 C           2.1030    0.7232   -0.0160 C.ar    1  UNL1        0.0784
      5 N          -0.2482   -0.5433   -0.0048 N.ar    1  UNL1       -0.1831
      6 N          -1.4933   -1.0854   -0.0125 N.ar    1  UNL1       -0.1621
      7 C          -2.3217   -0.0234   -0.0049 C.ar    1  UNL1        0.0939
      8 C          -1.5890    1.1988   -0.0079 C.ar    1  UNL1       -0.0083
      9 C          -0.2707    0.8307   -0.0113 C.ar    1  UNL1        0.0747
     10 C          -3.7804   -0.1667   -0.0183 C.ar    1  UNL1        0.0021
     11 C          -4.6016    0.8300    0.5326 C.ar    1  UNL1       -0.0525
     12 C          -5.9941    0.7206    0.4750 C.ar    1  UNL1       -0.0611
     13 C          -6.5802   -0.3858   -0.1339 C.ar    1  UNL1       -0.0617
     14 C          -5.7763   -1.3898   -0.6737 C.ar    1  UNL1       -0.0611
     15 C          -4.3843   -1.2835   -0.6118 C.ar    1  UNL1       -0.0525
     16 C           3.3977    1.4218    0.0016 C.ar    1  UNL1        0.0006
     17 C           4.0090    1.7292    1.2234 C.ar    1  UNL1       -0.0526
     18 C           5.2170    2.4277    1.2489 C.ar    1  UNL1       -0.0611
     19 C           5.8210    2.8194    0.0548 C.ar    1  UNL1       -0.0617
     20 C           5.2217    2.5102   -1.1662 C.ar    1  UNL1       -0.0611
     21 C           4.0124    1.8125   -1.1943 C.ar    1  UNL1       -0.0526
     22 O           0.7750   -2.6002    0.0044 O.3     1  UNL1       -0.4657
     23 C           1.9774   -3.3738   -0.0106 C.3     1  UNL1        0.0819
     24 H           1.0281    2.5651   -0.0233 H       1  UNL1        0.0660
     25 H          -1.9818    2.2055   -0.0240 H       1  UNL1        0.0661
     26 H          -4.1702    1.7003    1.0205 H       1  UNL1        0.0624
     27 H          -6.6178    1.5002    0.9040 H       1  UNL1        0.0618
     28 H          -7.6627   -0.4686   -0.1857 H       1  UNL1        0.0618
     29 H          -6.2327   -2.2547   -1.1483 H       1  UNL1        0.0618
     30 H          -3.7700   -2.0724   -1.0419 H       1  UNL1        0.0624
     31 H           3.5458    1.4235    2.1587 H       1  UNL1        0.0624
     32 H           5.6864    2.6640    2.2003 H       1  UNL1        0.0618
     33 H           6.7624    3.3627    0.0757 H       1  UNL1        0.0618
     34 H           5.6968    2.8105   -2.0966 H       1  UNL1        0.0618
     35 H           3.5537    1.5725   -2.1505 H       1  UNL1        0.0624
     36 H           2.5500   -3.1729   -0.9217 H       1  UNL1        0.0661
     37 H           2.5804   -3.1688    0.8797 H       1  UNL1        0.0661
     38 H           1.7018   -4.4319   -0.0037 H       1  UNL1        0.0661
@<TRIPOS>BOND
     1     1     9   ar
     2     5     2   ar
     3     2     3   ar
     4     3     4   ar
     5     1     4   ar
     6     5     6   ar
     7     6     7   ar
     8     7     8   ar
     9     8     9   ar
    10     5     9   ar
    11    10    11   ar
    12    11    12   ar
    13    12    13   ar
    14    13    14   ar
    15    14    15   ar
    16    10    15   ar
    17     7    10    1
    18    16    17   ar
    19    17    18   ar
    20    18    19   ar
    21    19    20   ar
    22    20    21   ar
    23    16    21   ar
    24     4    16    1
    25    22    23    1
    26     2    22    1
    27     1    24    1
    28     8    25    1
    29    11    26    1
    30    12    27    1
    31    13    28    1
    32    14    29    1
    33    15    30    1
    34    17    31    1
    35    18    32    1
    36    19    33    1
    37    20    34    1
    38    21    35    1
    39    23    36    1
    40    23    37    1
    41    23    38    1
@<TRIPOS>MOLECULE
mol_695_akc_jcimid2022101797
>676.sdf
 36 36 0 0 0
SMALL
GASTEIGER

@<TRIPOS>ATOM
      1 C          -3.3597   -2.2322   -1.4629 C.ar    1  UNL1       -0.0581
      2 C          -3.6546   -2.8501   -2.6817 C.ar    1  UNL1       -0.0586
      3 C          -4.4108   -2.1842   -3.6501 C.ar    1  UNL1       -0.0504
      4 C          -4.8908   -0.9010   -3.3674 C.ar    1  UNL1       -0.0586
      5 C          -4.5924   -0.2808   -2.1499 C.ar    1  UNL1       -0.0581
      6 C          -3.8019   -0.9285   -1.1905 C.ar    1  UNL1       -0.0441
      7 C          -4.6562   -2.8022   -4.9945 C.3     1  UNL1       -0.0397
      8 C          -3.3956   -0.1947    0.0832 C.3     1  UNL1       -0.0117
      9 C          -1.8639   -0.0331    0.1273 C.3     1  UNL1        0.0164
     10 C          -3.9337   -0.9100    1.3283 C.3     1  UNL1       -0.0580
     11 C          -1.3833    0.8758    1.2480 C.2     1  UNL1        0.1566
     12 O          -2.0616    1.8088    1.6643 O.2     1  UNL1       -0.2927
     13 C          -0.0185    0.5708    1.7952 C.2     1  UNL1       -0.0205
     14 C           0.6116    1.2092    2.7972 C.2     1  UNL1       -0.0724
     15 C           1.9506    0.7225    3.2893 C.3     1  UNL1       -0.0437
     16 C           0.0821    2.4182    3.5216 C.3     1  UNL1       -0.0437
     17 H          -2.7593   -2.7761   -0.7376 H       1  UNL1        0.0620
     18 H          -3.2743   -3.8507   -2.8735 H       1  UNL1        0.0620
     19 H          -5.4872   -0.3661   -4.1035 H       1  UNL1        0.0620
     20 H          -4.9677    0.7242   -1.9672 H       1  UNL1        0.0620
     21 H          -5.7156   -2.7373   -5.2616 H       1  UNL1        0.0278
     22 H          -4.0622   -2.2843   -5.7546 H       1  UNL1        0.0278
     23 H          -4.3743   -3.8601   -5.0073 H       1  UNL1        0.0278
     24 H          -3.8497    0.8053    0.0663 H       1  UNL1        0.0350
     25 H          -1.3887   -1.0154    0.2354 H       1  UNL1        0.0351
     26 H          -1.5030    0.4056   -0.8118 H       1  UNL1        0.0351
     27 H          -3.6957   -0.3501    2.2387 H       1  UNL1        0.0236
     28 H          -5.0240   -1.0086    1.2793 H       1  UNL1        0.0236
     29 H          -3.5126   -1.9150    1.4387 H       1  UNL1        0.0236
     30 H           0.4609   -0.2881    1.3302 H       1  UNL1        0.0652
     31 H           2.6899    1.5298    3.2572 H       1  UNL1        0.0274
     32 H           1.8648    0.3692    4.3222 H       1  UNL1        0.0274
     33 H           2.3405   -0.1031    2.6846 H       1  UNL1        0.0274
     34 H          -0.4202    3.1172    2.8477 H       1  UNL1        0.0274
     35 H          -0.6061    2.1151    4.3166 H       1  UNL1        0.0274
     36 H           0.8998    2.9834    3.9837 H       1  UNL1        0.0274
@<TRIPOS>BOND
     1     1     2   ar
     2     2     3   ar
     3     3     4   ar
     4     4     5   ar
     5     5     6   ar
     6     1     6   ar
     7     3     7    1
     8     8    10    1
     9     9    11    1
    10    11    12    2
    11    11    13    1
    12    13    14    2
    13    14    15    1
    14    14    16    1
    15     1    17    1
    16     2    18    1
    17     4    19    1
    18     5    20    1
    19     7    21    1
    20     7    22    1
    21     7    23    1
    22     8    24    1
    23     9    25    1
    24     9    26    1
    25    10    27    1
    26    10    28    1
    27    10    29    1
    28    13    30    1
    29    15    31    1
    30    15    32    1
    31    15    33    1
    32    16    34    1
    33    16    35    1
    34    16    36    1
    35     8     9    1
    36     8     6    1
@<TRIPOS>MOLECULE
mol_696_akc_briac132135
>677.sdf
 63 66 0 0 0
SMALL
GASTEIGER

@<TRIPOS>ATOM
      1 C          -1.1609   -1.2250   -0.6123 C.ar    1  UNL1        0.0119
      2 C          -2.2965   -0.4069   -0.5738 C.ar    1  UNL1       -0.0554
      3 C          -2.2048    0.9677   -0.2983 C.ar    1  UNL1       -0.0594
      4 C          -0.9700    1.6027   -0.0912 C.ar    1  UNL1       -0.0316
      5 C           0.1549    0.7827   -0.1364 C.ar    1  UNL1        0.1185
      6 C           0.0550   -0.6036   -0.3393 C.ar    1  UNL1        0.2329
      7 N           1.5203    1.0586   -0.0596 N.ar    1  UNL1       -0.2846
      8 C           2.2074   -0.0837   -0.1913 C.ar    1  UNL1        0.2494
      9 N           1.3448   -1.1156   -0.1643 N.ar    1  UNL1       -0.1755
     10 C           2.1525    2.3947   -0.0824 C.3     1  UNL1        0.0542
     11 C           1.8976    3.1507    1.2088 C.ar    1  UNL1       -0.0213
     12 C           2.3560    2.6150    2.4543 C.ar    1  UNL1       -0.0424
     13 C           1.2522    4.4250    1.1991 C.ar    1  UNL1       -0.0424
     14 C           1.0066    5.0930    2.4237 C.ar    1  UNL1       -0.0470
     15 C           1.3499    4.4809    3.6313 C.ar    1  UNL1       -0.0554
     16 C           2.0077    3.2492    3.6668 C.ar    1  UNL1       -0.0470
     17 C           3.2435    1.3963    2.5264 C.3     1  UNL1       -0.0391
     18 C           2.3725    2.7152    5.0299 C.3     1  UNL1       -0.0394
     19 C           0.8562    5.1630   -0.0642 C.3     1  UNL1       -0.0391
     20 C           0.4074    6.4790    2.4787 C.3     1  UNL1       -0.0394
     21 C           1.7592   -2.5316   -0.1135 C.3     1  UNL1        0.1916
     22 C           1.8628   -3.0860    1.3362 C.3     1  UNL1        0.0291
     23 N           0.5550   -3.0258    2.1263 N.4     1  UNL1        0.2397
     24 C          -1.6560   -3.8986    3.8355 C.3     1  UNL1       -0.0434
     25 C          -1.8162   -3.6955    2.3352 C.3     1  UNL1       -0.0123
     26 C          -0.5096   -3.9754    1.6101 C.3     1  UNL1       -0.0317
     27 C           0.7914   -3.2893    3.6130 C.3     1  UNL1       -0.0317
     28 C          -0.5045   -3.0610    4.3829 C.3     1  UNL1       -0.0123
     29 H          -1.2379   -2.2702   -0.8740 H       1  UNL1        0.0684
     30 H          -3.2781   -0.8407   -0.7765 H       1  UNL1        0.0620
     31 H          -3.1203    1.5635   -0.2694 H       1  UNL1        0.0618
     32 H          -0.9052    2.6662    0.0950 H       1  UNL1        0.0640
     33 H           3.2862   -0.1653   -0.2690 H       1  UNL1        0.1601
     34 H           3.2312    2.2889   -0.2434 H       1  UNL1        0.0543
     35 H           1.7692    2.8782   -0.9793 H       1  UNL1        0.0543
     36 H           1.1390    4.9958    4.5699 H       1  UNL1        0.0623
     37 H           4.0585    1.5579    3.2410 H       1  UNL1        0.0278
     38 H           2.6638    0.5179    2.8255 H       1  UNL1        0.0278
     39 H           3.7500    1.1860    1.5841 H       1  UNL1        0.0278
     40 H           3.2017    3.2934    5.4494 H       1  UNL1        0.0278
     41 H           1.5101    2.7877    5.7022 H       1  UNL1        0.0278
     42 H           2.6561    1.6599    5.0107 H       1  UNL1        0.0278
     43 H          -0.2084    5.4183   -0.0304 H       1  UNL1        0.0278
     44 H           1.4458    6.0817   -0.1563 H       1  UNL1        0.0278
     45 H           1.0010    4.6086   -0.9884 H       1  UNL1        0.0278
     46 H           1.0496    7.1896    1.9479 H       1  UNL1        0.0278
     47 H          -0.5940    6.4843    2.0393 H       1  UNL1        0.0278
     48 H           0.3153    6.8386    3.5095 H       1  UNL1        0.0278
     49 H           1.0751   -3.1305   -0.7218 H       1  UNL1        0.1087
     50 H           2.7465   -2.6027   -0.5857 H       1  UNL1        0.1087
     51 H           2.1967   -4.1289    1.3379 H       1  UNL1        0.0878
     52 H           2.5816   -2.4759    1.8935 H       1  UNL1        0.0878
     53 H           0.1950   -2.0623    2.0623 H       1  UNL1        0.2036
     54 H          -2.5874   -3.6357    4.3493 H       1  UNL1        0.0269
     55 H          -1.4660   -4.9597    4.0391 H       1  UNL1        0.0269
     56 H          -2.6006   -4.3569    1.9519 H       1  UNL1        0.0317
     57 H          -2.1421   -2.6662    2.1370 H       1  UNL1        0.0317
     58 H          -0.1528   -4.9984    1.7707 H       1  UNL1        0.0814
     59 H          -0.6241   -3.8083    0.5399 H       1  UNL1        0.0814
     60 H           1.5667   -2.5944    3.9513 H       1  UNL1        0.0814
     61 H           1.1512   -4.3194    3.7105 H       1  UNL1        0.0814
     62 H          -0.7751   -1.9990    4.3352 H       1  UNL1        0.0317
     63 H          -0.3498   -3.3022    5.4407 H       1  UNL1        0.0317
@<TRIPOS>UNITY_ATOM_ATTR
9 1
charge 1
23 1
charge 1
@<TRIPOS>BOND
     1     1     2   ar
     2     2     3   ar
     3     3     4   ar
     4     4     5   ar
     5     5     6   ar
     6     1     6   ar
     7     7     8   ar
     8     8     9   ar
     9     5     7   ar
    10     6     9   ar
    11     7    10    1
    12    10    11    1
    13    13    14   ar
    14    14    15   ar
    15    15    16   ar
    16    12    16   ar
    17    12    11   ar
    18    11    13   ar
    19    12    17    1
    20    16    18    1
    21    13    19    1
    22    14    20    1
    23     9    21    1
    24    21    22    1
    25    22    23    1
    26    24    25    1
    27    25    26    1
    28    27    28    1
    29    24    28    1
    30    26    23    1
    31    23    27    1
    32     1    29    1
    33     2    30    1
    34     3    31    1
    35     4    32    1
    36     8    33    1
    37    10    34    1
    38    10    35    1
    39    15    36    1
    40    17    37    1
    41    17    38    1
    42    17    39    1
    43    18    40    1
    44    18    41    1
    45    18    42    1
    46    19    43    1
    47    19    44    1
    48    19    45    1
    49    20    46    1
    50    20    47    1
    51    20    48    1
    52    21    49    1
    53    21    50    1
    54    22    51    1
    55    22    52    1
    56    23    53    1
    57    24    54    1
    58    24    55    1
    59    25    56    1
    60    25    57    1
    61    26    58    1
    62    26    59    1
    63    27    60    1
    64    27    61    1
    65    28    62    1
    66    28    63    1
@<TRIPOS>MOLECULE
mol_697_akc_s00436_022_07532_5
>678.sdf
 73 77 0 0 0
SMALL
GASTEIGER

@<TRIPOS>ATOM
      1 O          -0.1127    1.7973    0.5578 O.3     1  UNL1       -0.3313
      2 O          -2.2327    3.6568    0.2144 O.3     1  UNL1       -0.3461
      3 O          -4.4856    4.3905    0.1486 O.3     1  UNL1       -0.3431
      4 O          -2.7846   -0.4358   -0.6068 O.3     1  UNL1       -0.3865
      5 O          -0.5139   -2.1731   -0.4130 O.3     1  UNL1       -0.3864
      6 O           2.2246    1.8274    0.3206 O.3     1  UNL1       -0.4532
      7 O           2.0112   -0.7713   -1.0681 O.3     1  UNL1       -0.3829
      8 O          -3.4298    6.9039    1.4996 O.3     1  UNL1       -0.3841
      9 O          -2.4178    7.9098   -0.8067 O.3     1  UNL1       -0.3864
     10 O          -4.2242    6.8116   -2.6578 O.3     1  UNL1       -0.3866
     11 O           5.6850    2.1811   -0.9326 O.2     1  UNL1       -0.4507
     12 O           2.0441    2.7664   -2.4386 O.2     1  UNL1       -0.2830
     13 O           2.9927    2.1931   -4.9154 O.3     1  UNL1       -0.5058
     14 O           7.7661    2.3668   -5.1284 O.3     1  UNL1       -0.5065
     15 O           8.2015    0.5557    2.8484 O.3     1  UNL1       -0.5033
     16 O           7.0887    1.9199    4.9088 O.3     1  UNL1       -0.5033
     17 C          -1.3563    1.4644   -0.0920 C.3     1  UNL1        0.1144
     18 C          -1.5645   -0.0435    0.0273 C.3     1  UNL1        0.1120
     19 C          -0.3856   -0.7619   -0.6478 C.3     1  UNL1        0.1152
     20 C           0.9926   -0.2317   -0.2058 C.3     1  UNL1        0.1454
     21 C          -2.6725    5.9873    0.6753 C.3     1  UNL1        0.1341
     22 C          -3.1998    4.5364    0.7591 C.3     1  UNL1        0.1879
     23 C          -2.7425    6.5062   -0.7635 C.3     1  UNL1        0.1140
     24 C          -4.1596    6.3314   -1.3137 C.3     1  UNL1        0.1095
     25 C           0.9969    1.3136   -0.2203 C.3     1  UNL1        0.2311
     26 C          -2.5001    2.2797    0.5115 C.3     1  UNL1        0.0796
     27 C          -4.6054    4.8689   -1.2012 C.3     1  UNL1        0.0873
     28 C          -3.9431    3.9369   -2.2206 C.3     1  UNL1       -0.0361
     29 C           3.3040    1.9947   -0.5453 C.ar    1  UNL1        0.2138
     30 C           4.5828    1.9423   -0.1143 C.ar    1  UNL1        0.1810
     31 C           3.1086    2.3535   -2.0002 C.ar    1  UNL1        0.2382
     32 C           4.2834    2.2578   -2.8878 C.ar    1  UNL1        0.1092
     33 C           5.0631    1.7202    1.2804 C.ar    1  UNL1        0.0247
     34 C           5.5233    2.2309   -2.2843 C.ar    1  UNL1        0.1465
     35 C           4.2028    2.2644   -4.2879 C.ar    1  UNL1        0.1348
     36 C           6.6913    2.2734   -3.0454 C.ar    1  UNL1        0.0231
     37 C           6.2961    1.0523    1.4534 C.ar    1  UNL1       -0.0057
     38 C           4.4794    2.3448    2.3922 C.ar    1  UNL1       -0.0473
     39 C           5.3672    2.3038   -5.0640 C.ar    1  UNL1        0.0223
     40 C           6.6034    2.3156   -4.4287 C.ar    1  UNL1        0.1239
     41 C           6.9582    1.1048    2.6774 C.ar    1  UNL1        0.1589
     42 C           5.1348    2.3618    3.6307 C.ar    1  UNL1       -0.0159
     43 C           6.3880    1.7783    3.7435 C.ar    1  UNL1        0.1583
     44 H          -1.2983    1.7550   -1.1508 H       1  UNL1        0.0647
     45 H          -1.6230   -0.3480    1.0793 H       1  UNL1        0.0647
     46 H          -0.4836   -0.6540   -1.7354 H       1  UNL1        0.0648
     47 H           1.2282   -0.5892    0.8021 H       1  UNL1        0.0683
     48 H          -1.6364    6.0406    1.0296 H       1  UNL1        0.0671
     49 H          -3.3355    4.2945    1.8203 H       1  UNL1        0.0937
     50 H          -2.0141    5.9983   -1.4054 H       1  UNL1        0.0648
     51 H          -4.8465    6.9569   -0.7299 H       1  UNL1        0.0646
     52 H           0.8204    1.6517   -1.2344 H       1  UNL1        0.1084
     53 H          -3.4546    1.9941    0.0578 H       1  UNL1        0.0587
     54 H          -2.5519    2.1400    1.5962 H       1  UNL1        0.0587
     55 H          -5.6777    4.8361   -1.4309 H       1  UNL1        0.0621
     56 H          -4.2943    2.9092   -2.0821 H       1  UNL1        0.0255
     57 H          -4.1797    4.2418   -3.2453 H       1  UNL1        0.0255
     58 H          -2.8548    3.9190   -2.1295 H       1  UNL1        0.0255
     59 H          -2.6512   -1.3440   -0.9433 H       1  UNL1        0.2100
     60 H          -0.1723   -2.3628    0.4805 H       1  UNL1        0.2100
     61 H           1.7195   -0.6605   -1.9917 H       1  UNL1        0.2102
     62 H          -4.1165    6.3949    1.9661 H       1  UNL1        0.2101
     63 H          -2.7318    8.2698    0.0499 H       1  UNL1        0.2100
     64 H          -3.7070    7.6429   -2.6551 H       1  UNL1        0.2100
     65 H           7.6646    2.2751   -2.5586 H       1  UNL1        0.0691
     66 H           6.7626    0.5525    0.6117 H       1  UNL1        0.0662
     67 H           3.5320    2.8738    2.3003 H       1  UNL1        0.0626
     68 H           5.3061    2.3177   -6.1421 H       1  UNL1        0.0691
     69 H           4.7001    2.8783    4.4761 H       1  UNL1        0.0655
     70 H           3.0916    2.3552   -5.8668 H       1  UNL1        0.2922
     71 H           7.5708    2.4373   -6.0769 H       1  UNL1        0.2921
     72 H           8.4546    0.1070    2.0205 H       1  UNL1        0.2923
     73 H           7.9820    1.5708    4.7020 H       1  UNL1        0.2923
@<TRIPOS>BOND
     1     1    17    1
     2     1    25    1
     3     2    22    1
     4     2    26    1
     5     3    22    1
     6     3    27    1
     7     4    18    1
     8     4    59    1
     9     5    19    1
    10     5    60    1
    11     6    25    1
    12     6    29    1
    13     7    20    1
    14     7    61    1
    15     8    21    1
    16     8    62    1
    17     9    23    1
    18     9    63    1
    19    10    64    1
    20    11    30   ar
    21    11    34   ar
    22    12    31    2
    23    13    35    1
    24    13    70    1
    25    14    40    1
    26    14    71    1
    27    15    41    1
    28    15    72    1
    29    16    43    1
    30    16    73    1
    31    17    18    1
    32    17    26    1
    33    17    44    1
    34    18    19    1
    35    18    45    1
    36    19    20    1
    37    19    46    1
    38    20    25    1
    39    20    47    1
    40    21    22    1
    41    21    23    1
    42    21    48    1
    43    22    49    1
    44    23    24    1
    45    23    50    1
    46    24    27    1
    47    25    52    1
    48    26    53    1
    49    26    54    1
    50    27    28    1
    51    27    55    1
    52    28    56    1
    53    28    57    1
    54    28    58    1
    55    29    30   ar
    56    29    31   ar
    57    30    33    1
    58    31    32   ar
    59    32    34   ar
    60    32    35   ar
    61    33    37   ar
    62    33    38   ar
    63    34    36   ar
    64    35    39   ar
    65    36    40   ar
    66    36    65    1
    67    37    41   ar
    68    37    66    1
    69    38    42   ar
    70    38    67    1
    71    39    40   ar
    72    39    68    1
    73    41    43   ar
    74    42    43   ar
    75    42    69    1
    76    24    51    1
    77    24    10    1
@<TRIPOS>MOLECULE
mol_698_akc_acsomega2c00467
>679.sdf
 24 24 0 0 0
SMALL
GASTEIGER

@<TRIPOS>ATOM
      1 C          -0.3886   -0.4438    0.4690 C.3     1  UNL1       -0.0585
      2 C           0.5102   -1.2676   -0.4558 C.3     1  UNL1       -0.0178
      3 C           1.3631   -0.3650   -1.3529 C.3     1  UNL1       -0.0585
      4 C           1.3574   -2.2904    0.2797 C.2     1  UNL1        0.0055
      5 C           1.2370   -3.6054    0.0460 C.2     1  UNL1       -0.0076
      6 C           2.0820   -4.6292    0.6957 C.2     1  UNL1        0.1824
      7 O           1.8989   -5.8154    0.4560 O.2     1  UNL1       -0.2876
      8 C           3.1468   -4.1563    1.6128 C.2     1  UNL1       -0.0002
      9 C           4.0708   -5.1653    2.2197 C.3     1  UNL1       -0.0360
     10 C           3.2578   -2.8464    1.8713 C.2     1  UNL1       -0.0081
     11 C           2.3753   -1.8292    1.2646 C.2     1  UNL1        0.1828
     12 O           2.5169   -0.6538    1.5749 O.2     1  UNL1       -0.2876
     13 H          -1.0696   -1.0938    1.0291 H       1  UNL1        0.0235
     14 H          -1.0016    0.2523   -0.1145 H       1  UNL1        0.0235
     15 H           0.1806    0.1500    1.1898 H       1  UNL1        0.0235
     16 H          -0.1688   -1.8083   -1.1308 H       1  UNL1        0.0345
     17 H           1.9475   -0.9613   -2.0611 H       1  UNL1        0.0235
     18 H           0.7259    0.3100   -1.9348 H       1  UNL1        0.0235
     19 H           2.0586    0.2544   -0.7787 H       1  UNL1        0.0235
     20 H           0.5136   -4.0008   -0.6593 H       1  UNL1        0.0660
     21 H           5.0998   -4.9788    1.8931 H       1  UNL1        0.0279
     22 H           4.0365   -5.1096    3.3124 H       1  UNL1        0.0279
     23 H           3.8204   -6.1914    1.9360 H       1  UNL1        0.0279
     24 H           4.0171   -2.4584    2.5418 H       1  UNL1        0.0660
@<TRIPOS>BOND
     1     1     2    1
     2     2     3    1
     3     2     4    1
     4     4     5    2
     5     5     6    1
     6     6     7    2
     7     6     8    1
     8     8     9    1
     9     8    10    2
    10    10    11    1
    11     4    11    1
    12    11    12    2
    13     1    13    1
    14     1    14    1
    15     1    15    1
    16     2    16    1
    17     3    17    1
    18     3    18    1
    19     3    19    1
    20     5    20    1
    21     9    21    1
    22     9    22    1
    23     9    23    1
    24    10    24    1
@<TRIPOS>MOLECULE
mol_699_akc_jparint2021102458
>680.sdf
 58 63 0 0 0
SMALL
GASTEIGER

@<TRIPOS>ATOM
      1 O           2.1365   -0.2171    0.5235 O.3     1  UNL1       -0.5068
      2 C           0.7955   -0.0889    0.3227 C.ar    1  UNL1        0.1169
      3 C          -0.1169   -0.2349    1.3607 C.ar    1  UNL1       -0.0195
      4 C          -1.4871   -0.2030    1.0790 C.ar    1  UNL1       -0.0476
      5 C          -1.9525   -0.0217   -0.2341 C.ar    1  UNL1        0.0176
      6 C          -1.0034    0.1264   -1.2612 C.ar    1  UNL1       -0.0476
      7 C           0.3644    0.1091   -0.9820 C.ar    1  UNL1       -0.0195
      8 C          -3.4059   -0.0044   -0.5125 C.ar    1  UNL1        0.1393
      9 C          -3.9168    0.7724   -1.4755 C.ar    1  UNL1        0.0288
     10 C          -5.3631    0.7782   -1.6853 C.ar    1  UNL1        0.1966
     11 O          -5.8734    1.4914   -2.5425 O.2     1  UNL1       -0.2869
     12 C          -6.1704   -0.1169   -0.8481 C.ar    1  UNL1        0.1061
     13 C          -7.5517   -0.1719   -1.0219 C.ar    1  UNL1        0.1347
     14 O          -8.2358    0.6149   -1.9072 O.3     1  UNL1       -0.5058
     15 C          -8.2951   -1.0669   -0.2782 C.ar    1  UNL1        0.0229
     16 C          -7.6567   -1.9164    0.6312 C.ar    1  UNL1        0.1317
     17 O          -8.5152   -2.7926    1.2447 O.3     1  UNL1       -0.5059
     18 C          -6.2570   -1.8890    0.8702 C.ar    1  UNL1        0.0702
     19 C          -5.5295   -0.9353    0.1001 C.ar    1  UNL1        0.1541
     20 O          -4.1673   -0.8176    0.3144 O.2     1  UNL1       -0.4537
     21 C          -5.5714   -2.8386    1.8232 C.ar    1  UNL1        0.0313
     22 C          -4.3356   -3.4482    1.4800 C.ar    1  UNL1       -0.0396
     23 C          -3.6434   -4.3321    2.3372 C.ar    1  UNL1        0.0182
     24 C          -4.2376   -4.6521    3.5647 C.ar    1  UNL1       -0.0476
     25 C          -5.4590   -4.0987    3.9337 C.ar    1  UNL1       -0.0189
     26 C          -6.0923   -3.1884    3.0872 C.ar    1  UNL1        0.1248
     27 O          -7.2775   -2.6442    3.5187 O.3     1  UNL1       -0.5062
     28 C          -2.2950   -4.8554    1.9911 C.ar    1  UNL1        0.1392
     29 C          -1.8386   -6.0179    2.4766 C.ar    1  UNL1        0.0288
     30 C          -0.4482   -6.4191    2.2217 C.ar    1  UNL1        0.1966
     31 O           0.0181   -7.4500    2.6900 O.2     1  UNL1       -0.2869
     32 C           0.3670   -5.5152    1.4093 C.ar    1  UNL1        0.1055
     33 C           1.7154   -5.7817    1.1431 C.ar    1  UNL1        0.1347
     34 O           2.3704   -6.8765    1.6383 O.3     1  UNL1       -0.5058
     35 C           2.4558   -4.9105    0.3510 C.ar    1  UNL1        0.0223
     36 C           1.8389   -3.7835   -0.1780 C.ar    1  UNL1        0.1239
     37 O           2.5980   -2.9452   -0.9394 O.3     1  UNL1       -0.5065
     38 C           0.4930   -3.5196    0.0704 C.ar    1  UNL1        0.0231
     39 C          -0.2396   -4.3743    0.8924 C.ar    1  UNL1        0.1462
     40 O          -1.5430   -4.0256    1.1634 O.2     1  UNL1       -0.4544
     41 H           2.2978   -0.4543    1.4538 H       1  UNL1        0.2921
     42 H           0.2109   -0.3945    2.3834 H       1  UNL1        0.0654
     43 H          -2.1921   -0.3253    1.9000 H       1  UNL1        0.0626
     44 H          -1.3099    0.2396   -2.2990 H       1  UNL1        0.0626
     45 H           1.0869    0.2187   -1.7868 H       1  UNL1        0.0654
     46 H          -3.3354    1.4239   -2.1143 H       1  UNL1        0.0693
     47 H          -7.5874    1.1694   -2.3972 H       1  UNL1        0.2922
     48 H          -9.3731   -1.1189   -0.4083 H       1  UNL1        0.0691
     49 H          -8.1800   -2.9204    2.1525 H       1  UNL1        0.2922
     50 H          -3.8924   -3.2329    0.5081 H       1  UNL1        0.0632
     51 H          -3.7555   -5.3245    4.2706 H       1  UNL1        0.0626
     52 H          -5.8969   -4.3862    4.8860 H       1  UNL1        0.0654
     53 H          -7.3893   -2.8390    4.4677 H       1  UNL1        0.2922
     54 H          -2.4113   -6.6938    3.0993 H       1  UNL1        0.0693
     55 H           1.7282   -7.4122    2.1561 H       1  UNL1        0.2922
     56 H           3.5045   -5.1085    0.1475 H       1  UNL1        0.0691
     57 H           2.1620   -2.0752   -0.9868 H       1  UNL1        0.2921
     58 H           0.0012   -2.6640   -0.3734 H       1  UNL1        0.0691
@<TRIPOS>BOND
     1     1     2    1
     2     2     3   ar
     3     3     4   ar
     4     4     5   ar
     5     5     6   ar
     6     6     7   ar
     7     2     7   ar
     8     5     8    1
     9     8     9   ar
    10     9    10   ar
    11    10    11    2
    12    10    12   ar
    13    12    13   ar
    14    13    14    1
    15    13    15   ar
    16    15    16   ar
    17    16    17    1
    18    16    18   ar
    19    18    19   ar
    20    12    19   ar
    21    19    20   ar
    22     8    20   ar
    23    18    21    1
    24    21    22   ar
    25    22    23   ar
    26    23    24   ar
    27    24    25   ar
    28    25    26   ar
    29    21    26   ar
    30    26    27    1
    31    23    28    1
    32    28    29   ar
    33    29    30   ar
    34    30    31    2
    35    30    32   ar
    36    32    33   ar
    37    33    34    1
    38    33    35   ar
    39    35    36   ar
    40    36    37    1
    41    36    38   ar
    42    38    39   ar
    43    32    39   ar
    44    39    40   ar
    45    28    40   ar
    46     1    41    1
    47     3    42    1
    48     4    43    1
    49     6    44    1
    50     7    45    1
    51     9    46    1
    52    14    47    1
    53    15    48    1
    54    17    49    1
    55    22    50    1
    56    24    51    1
    57    25    52    1
    58    27    53    1
    59    29    54    1
    60    34    55    1
    61    35    56    1
    62    37    57    1
    63    38    58    1
@<TRIPOS>MOLECULE
mol_69_akc_jbmc2019115187
>68.sdf
 53 57 0 0 0
SMALL
GASTEIGER

@<TRIPOS>ATOM
      1 C           1.9320   -5.1030   -1.2853 C.3     1  UNL1       -0.0470
      2 C           3.0611   -4.7125   -0.3299 C.3     1  UNL1        0.0244
      3 N           3.3036   -3.2697   -0.3048 N.ar    1  UNL1       -0.3020
      4 C           2.6322   -2.3669    0.4933 C.ar    1  UNL1        0.0904
      5 S           3.2825   -0.7647    0.3138 S.2     1  UNL1       -0.0659
      6 C           4.1273   -1.2169   -1.1247 C.ar    1  UNL1        0.0786
      7 C           4.6445   -0.3145   -1.9837 C.2     1  UNL1       -0.0404
      8 C           4.6599    1.1092   -1.6714 C.2     1  UNL1       -0.0323
      9 C           3.9831    2.1213   -2.2535 C.2     1  UNL1        0.0726
     10 S           3.0321    1.8624   -3.7346 S.3     1  UNL1       -0.0721
     11 C           2.6233    3.6131   -3.7240 C.ar    1  UNL1        0.0354
     12 C           3.1545    4.2714   -2.5854 C.ar    1  UNL1        0.0507
     13 C           2.8917    5.6255   -2.4176 C.ar    1  UNL1       -0.0040
     14 C           2.1347    6.2981   -3.3794 C.ar    1  UNL1        0.1252
     15 F           1.8877    7.6012   -3.2171 F       1  UNL1       -0.2054
     16 C           1.6372    5.6459   -4.5093 C.ar    1  UNL1       -0.0253
     17 C           1.8784    4.2840   -4.6860 C.ar    1  UNL1       -0.0434
     18 N           3.9320    3.4360   -1.7647 N.pl3   1  UNL1       -0.2968
     19 C           4.4157    3.8737   -0.4651 C.3     1  UNL1        0.0063
     20 C           4.1195   -2.7063   -1.3010 C.ar    1  UNL1        0.2659
     21 O           4.6862   -3.2883   -2.2080 O.2     1  UNL1       -0.2665
     22 C           1.5336   -2.6048    1.2350 C.2     1  UNL1        0.0476
     23 C           0.6462   -1.5184    1.4836 C.ar    1  UNL1        0.2502
     24 N          -0.1680   -1.0234    0.5681 N.ar    1  UNL1       -0.1871
     25 C          -0.6564   -1.7684   -0.5875 C.3     1  UNL1        0.1421
     26 C          -0.7050    0.2160    0.8564 C.ar    1  UNL1        0.2251
     27 C          -1.4281    1.0344   -0.0179 C.ar    1  UNL1        0.0461
     28 C          -2.2170    2.0196    0.5529 C.ar    1  UNL1        0.1297
     29 F          -3.0607    2.6980   -0.2316 F       1  UNL1       -0.2053
     30 C          -2.1972    2.2607    1.9209 C.ar    1  UNL1       -0.0250
     31 C          -1.3122    1.5700    2.7662 C.ar    1  UNL1       -0.0387
     32 C          -0.5670    0.5251    2.2046 C.ar    1  UNL1        0.0895
     33 S           0.5553   -0.5840    2.9245 S.2     1  UNL1       -0.0144
     34 H           1.7572   -6.1840   -1.2447 H       1  UNL1        0.0247
     35 H           0.9948   -4.6048   -1.0252 H       1  UNL1        0.0247
     36 H           2.1770   -4.8328   -2.3144 H       1  UNL1        0.0247
     37 H           2.8334   -5.0583    0.6872 H       1  UNL1        0.0490
     38 H           3.9672   -5.2155   -0.6421 H       1  UNL1        0.0490
     39 H           5.1049   -0.6336   -2.9109 H       1  UNL1        0.0631
     40 H           5.2354    1.3349   -0.7761 H       1  UNL1        0.0642
     41 H           3.2607    6.1983   -1.5764 H       1  UNL1        0.0665
     42 H           1.0694    6.2128   -5.2412 H       1  UNL1        0.0646
     43 H           1.5009    3.7679   -5.5655 H       1  UNL1        0.0630
     44 H           3.8489    3.3779    0.3311 H       1  UNL1        0.0432
     45 H           5.4740    3.6162   -0.3454 H       1  UNL1        0.0432
     46 H           4.3397    4.9498   -0.2972 H       1  UNL1        0.0432
     47 H           1.1412   -3.6077    1.3734 H       1  UNL1        0.0716
     48 H          -1.7453   -1.8459   -0.4933 H       1  UNL1        0.0994
     49 H          -0.4000   -1.2554   -1.5164 H       1  UNL1        0.0994
     50 H          -0.2701   -2.7883   -0.6133 H       1  UNL1        0.0994
     51 H          -1.4577    0.8857   -1.0914 H       1  UNL1        0.0713
     52 H          -2.8881    2.9997    2.3313 H       1  UNL1        0.0646
     53 H          -1.2733    1.7963    3.8292 H       1  UNL1        0.0632
@<TRIPOS>UNITY_ATOM_ATTR
24 1
charge 1
@<TRIPOS>BOND
     1     1    34    1
     2     1    35    1
     3     1    36    1
     4     2     1    1
     5     2    37    1
     6     2    38    1
     7     3     2    1
     8     4     3   ar
     9     5     4   ar
    10     6     5   ar
    11     7     6    2
    12     7    39    1
    13     8     7    1
    14     8    40    1
    15     9     8    2
    16    10     9    1
    17    11    10    1
    18    12    11   ar
    19    13    12   ar
    20    13    41    1
    21    14    13   ar
    22    15    14    1
    23    16    14   ar
    24    16    42    1
    25    17    16   ar
    26    17    11   ar
    27    17    43    1
    28    18    12    1
    29    18     9    1
    30    19    18    1
    31    19    44    1
    32    19    45    1
    33    19    46    1
    34    20     6   ar
    35    20     3   ar
    36    21    20    2
    37    22     4    2
    38    22    47    1
    39    23    22    1
    40    24    23   ar
    41    25    24    1
    42    25    48    1
    43    25    49    1
    44    25    50    1
    45    26    24   ar
    46    27    26   ar
    47    27    51    1
    48    28    27   ar
    49    29    28    1
    50    30    28   ar
    51    30    52    1
    52    31    30   ar
    53    31    53    1
    54    32    31   ar
    55    32    26   ar
    56    33    32   ar
    57    33    23   ar
@<TRIPOS>MOLECULE
mol_6_akc_1573406417666210216154428
>6.sdf
 29 30 0 0 0
SMALL
GASTEIGER

@<TRIPOS>ATOM
      1 N           0.9047    2.1777   -2.6906 N.pl3   1  UNL1       -0.2925
      2 C           2.1843    2.3001   -2.8515 C.cat   1  UNL1        0.3349
      3 N           2.6044    3.2946   -3.4446 N.pl3   1  UNL1       -0.3928
      4 N           3.1117    1.4603   -2.4322 N.pl3   1  UNL1       -0.1599
      5 N           4.5121    1.6566   -2.6451 N.2     1  UNL1       -0.1179
      6 C           5.2447    0.7009   -2.1507 C.2     1  UNL1        0.0879
      7 C           6.7204    0.7210   -2.2487 C.ar    1  UNL1        0.0855
      8 C           7.3814    1.7679   -2.8697 C.ar    1  UNL1       -0.0341
      9 C           8.7673    1.7266   -2.8970 C.ar    1  UNL1       -0.0505
     10 C           9.4415    0.6501   -2.3117 C.ar    1  UNL1        0.0004
     11 C          10.8434    0.5893   -2.3198 C.ar    1  UNL1       -0.0526
     12 C          11.5003   -0.4903   -1.7382 C.ar    1  UNL1       -0.0611
     13 C          10.7596   -1.5093   -1.1508 C.ar    1  UNL1       -0.0597
     14 C           9.3616   -1.4435   -1.1410 C.ar    1  UNL1       -0.0357
     15 C           8.6770   -0.3765   -1.7101 C.ar    1  UNL1        0.0717
     16 N           7.3267   -0.3393   -1.6774 N.ar    1  UNL1       -0.2457
     17 H           0.1989    2.8374   -3.0009 H       1  UNL1        0.2545
     18 H           0.5082    1.3695   -2.2108 H       1  UNL1        0.2545
     19 H           2.7878    0.6242   -1.9339 H       1  UNL1        0.2920
     20 H           4.8083   -0.1701   -1.6295 H       1  UNL1        0.0882
     21 H           6.8632    2.6031   -3.3210 H       1  UNL1        0.0639
     22 H           9.3238    2.5324   -3.3721 H       1  UNL1        0.0625
     23 H          11.4354    1.3803   -2.7765 H       1  UNL1        0.0624
     24 H          12.5876   -0.5363   -1.7445 H       1  UNL1        0.0618
     25 H          11.2694   -2.3573   -0.6979 H       1  UNL1        0.0618
     26 H           8.8020   -2.2512   -0.6747 H       1  UNL1        0.0639
     27 H           3.5004    3.0388   -3.8467 H       1  UNL1        0.2155
     28 H           1.9861    3.7080   -4.1139 H       1  UNL1        0.2155
     29 H           2.8657    3.9747   -2.7441 H       1  UNL1        0.2155
@<TRIPOS>BOND
     1     1    17    1
     2     1    18    1
     3     2     1    1
     4     3     2    2
     5     3    27    1
     6     3    28    1
     7     4     2    1
     8     4    19    1
     9     5     4    1
    10     6     5    2
    11     6    20    1
    12     7     6    1
    13     8     7   ar
    14     8    21    1
    15     9     8   ar
    16     9    22    1
    17    10     9   ar
    18    11    10   ar
    19    11    23    1
    20    12    11   ar
    21    12    24    1
    22    13    12   ar
    23    13    25    1
    24    14    13   ar
    25    14    26    1
    26    15    14   ar
    27    15    10   ar
    28    16    15   ar
    29    16     7   ar
    30     3    29    1
@<TRIPOS>MOLECULE
mol_700_akc_jintimp2022108952
>681.sdf
 23 22 0 0 0
SMALL
GASTEIGER

@<TRIPOS>ATOM
      1 C           1.5863    0.0906    3.0387 C.3     1  UNL1        0.0322
      2 C           2.9326    0.5675    2.5213 C.3     1  UNL1       -0.0318
      3 N           2.9718    0.5643    1.0513 N.4     1  UNL1        0.2186
      4 C           0.9694   -1.1052    2.2810 C.3     1  UNL1        0.1966
      5 O           0.6361   -0.6117    0.9183 O.3     1  UNL1       -0.3720
      6 P           2.2837   -2.4260    1.9761 P.3     1  UNL1        0.1738
      7 O           1.7927   -3.8067    1.7096 O.2     1  UNL1       -0.3036
      8 O           3.0452   -2.4892    3.3994 O.3     1  UNL1       -0.3512
      9 O           3.3207   -1.8105    1.0346 O.co2   1  UNL1       -0.7791
     10 P          -0.7009   -1.4981    3.0058 P.3     1  UNL1        0.1738
     11 O          -1.5533   -2.1949    1.9767 O.2     1  UNL1       -0.3036
     12 O          -1.3650   -0.0044    2.9909 O.3     1  UNL1       -0.3512
     13 O          -0.6758   -1.8447    4.4681 O.co2   1  UNL1       -0.7791
     14 H           0.8991    0.9427    2.9838 H       1  UNL1        0.0355
     15 H           1.6853   -0.1589    4.1012 H       1  UNL1        0.0355
     16 H           3.1166    1.5990    2.8409 H       1  UNL1        0.0814
     17 H           3.7684   -0.0420    2.8768 H       1  UNL1        0.0814
     18 H           2.0429    0.7079    0.6271 H       1  UNL1        0.1994
     19 H           3.7304    1.0697    0.6025 H       1  UNL1        0.1994
     20 H           3.1566   -0.4503    0.7965 H       1  UNL1        0.1994
     21 H          -0.0915   -1.2448    0.6785 H       1  UNL1        0.2114
     22 H           3.5292   -3.3368    3.3871 H       1  UNL1        0.2167
     23 H          -2.2912   -0.1738    3.2435 H       1  UNL1        0.2167
@<TRIPOS>UNITY_ATOM_ATTR
3 1
charge 1
9 1
charge -1
13 1
charge -1
@<TRIPOS>BOND
     1     1     2    1
     2     2     3    1
     3     1     4    1
     4     4     5    1
     5     6     8    1
     6     6     9    1
     7    10    12    1
     8    10    13    1
     9     1    14    1
    10     1    15    1
    11     2    16    1
    12     2    17    1
    13     3    18    1
    14     3    19    1
    15     3    20    1
    16     5    21    1
    17     8    22    1
    18    12    23    1
    19     6     7    2
    20     6     4    1
    21    10    11    2
    22    10     4    1
@<TRIPOS>MOLECULE
mol_701_akc_s41598_022_15449_3
>682.sdf
 53 55 0 0 0
SMALL
GASTEIGER

@<TRIPOS>ATOM
      1 C           1.3129   -0.2623    0.4199 C.ar    1  UNL1       -0.0501
      2 C           0.4648   -1.3584    0.6272 C.ar    1  UNL1       -0.0195
      3 C          -0.9203   -1.2131    0.5423 C.ar    1  UNL1        0.1210
      4 C          -1.4471    0.0391    0.2260 C.ar    1  UNL1       -0.0195
      5 C          -0.6032    1.1370    0.0096 C.ar    1  UNL1       -0.0501
      6 C           0.7878    1.0015    0.1148 C.ar    1  UNL1       -0.0027
      7 C           0.1540    4.7317    3.4018 C.ar    1  UNL1       -0.0535
      8 C           1.4393    4.4593    2.9048 C.ar    1  UNL1       -0.0030
      9 C           2.4417    5.4324    3.0439 C.ar    1  UNL1       -0.0535
     10 C           2.1645    6.6469    3.6747 C.ar    1  UNL1       -0.0613
     11 C           0.8868    6.9042    4.1673 C.ar    1  UNL1       -0.0617
     12 C          -0.1170    5.9471    4.0324 C.ar    1  UNL1       -0.0613
     13 N           1.4557    3.3554    0.7154 N.4     1  UNL1        0.2336
     14 C           1.7010    2.1674   -0.1491 C.3     1  UNL1       -0.0074
     15 C           1.7140    3.1756    2.1727 C.3     1  UNL1       -0.0074
     16 O          -1.6487   -2.3542    0.7689 O.3     1  UNL1       -0.4874
     17 C          -3.0534   -2.1587    0.9453 C.3     1  UNL1        0.1147
     18 C          -3.7869   -3.4336    1.2931 C.ar    1  UNL1       -0.0067
     19 C          -3.5783   -4.6188    0.5879 C.ar    1  UNL1       -0.0517
     20 C          -4.3780   -5.7357    0.8456 C.ar    1  UNL1       -0.0159
     21 C          -5.3997   -5.6943    1.8041 C.ar    1  UNL1        0.1615
     22 C          -5.6327   -4.5032    2.5066 C.ar    1  UNL1        0.1618
     23 C          -4.8089   -3.3939    2.2571 C.ar    1  UNL1       -0.0099
     24 O          -6.1154   -6.8615    1.8738 O.3     1  UNL1       -0.4915
     25 O          -6.6487   -4.4539    3.4245 O.3     1  UNL1       -0.4914
     26 C          -6.7788   -7.1537    3.0960 C.3     1  UNL1        0.0790
     27 C          -7.3020   -3.1986    3.5761 C.3     1  UNL1        0.0790
     28 H           2.3875   -0.4281    0.4863 H       1  UNL1        0.0623
     29 H           0.8876   -2.3361    0.8527 H       1  UNL1        0.0654
     30 H          -2.5163    0.1964    0.1149 H       1  UNL1        0.0654
     31 H          -1.0645    2.0834   -0.2637 H       1  UNL1        0.0623
     32 H          -0.6490    4.0017    3.3196 H       1  UNL1        0.0622
     33 H           3.4525    5.2607    2.6786 H       1  UNL1        0.0622
     34 H           2.9454    7.3964    3.7920 H       1  UNL1        0.0618
     35 H           0.6750    7.8487    4.6647 H       1  UNL1        0.0618
     36 H          -1.1104    6.1511    4.4276 H       1  UNL1        0.0618
     37 H           2.0394    4.1334    0.3870 H       1  UNL1        0.2020
     38 H           0.4886    3.6773    0.6005 H       1  UNL1        0.2020
     39 H           2.7556    1.8980   -0.0227 H       1  UNL1        0.0867
     40 H           1.5639    2.5064   -1.1816 H       1  UNL1        0.0867
     41 H           1.0663    2.3731    2.5404 H       1  UNL1        0.0867
     42 H           2.7594    2.8669    2.2907 H       1  UNL1        0.0867
     43 H          -3.2068   -1.4324    1.7534 H       1  UNL1        0.0748
     44 H          -3.5016   -1.7786    0.0187 H       1  UNL1        0.0748
     45 H          -2.8064   -4.6823   -0.1769 H       1  UNL1        0.0623
     46 H          -4.2150   -6.6526    0.2820 H       1  UNL1        0.0655
     47 H          -4.9629   -2.4708    2.8082 H       1  UNL1        0.0659
     48 H          -6.1188   -7.0126    3.9581 H       1  UNL1        0.0660
     49 H          -7.7044   -6.5789    3.1930 H       1  UNL1        0.0660
     50 H          -7.0644   -8.2103    3.0690 H       1  UNL1        0.0660
     51 H          -6.6987   -2.5150    4.1802 H       1  UNL1        0.0660
     52 H          -7.5502   -2.7505    2.6062 H       1  UNL1        0.0660
     53 H          -8.2408   -3.3707    4.1139 H       1  UNL1        0.0660
@<TRIPOS>UNITY_ATOM_ATTR
13 1
charge 1
@<TRIPOS>BOND
     1     1     2   ar
     2     2     3   ar
     3     3     4   ar
     4     4     5   ar
     5     5     6   ar
     6     1     6   ar
     7     7     8   ar
     8     8     9   ar
     9     9    10   ar
    10    10    11   ar
    11    11    12   ar
    12     7    12   ar
    13     6    14    1
    14    14    13    1
    15    13    15    1
    16    15     8    1
    17     3    16    1
    18    16    17    1
    19    17    18    1
    20    19    20   ar
    21    20    21   ar
    22    21    22   ar
    23    22    23   ar
    24    23    18   ar
    25    19    18   ar
    26    21    24    1
    27    22    25    1
    28    24    26    1
    29    25    27    1
    30     1    28    1
    31     2    29    1
    32     4    30    1
    33     5    31    1
    34     7    32    1
    35     9    33    1
    36    10    34    1
    37    11    35    1
    38    12    36    1
    39    13    37    1
    40    13    38    1
    41    14    39    1
    42    14    40    1
    43    15    41    1
    44    15    42    1
    45    17    43    1
    46    17    44    1
    47    19    45    1
    48    20    46    1
    49    23    47    1
    50    26    48    1
    51    26    49    1
    52    26    50    1
    53    27    51    1
    54    27    52    1
    55    27    53    1
@<TRIPOS>MOLECULE
mol_702_akc_jjpba2021114469
>683.sdf
 46 48 0 0 0
SMALL
GASTEIGER

@<TRIPOS>ATOM
      1 C          -0.5744    5.8454   -2.8738 C.3     1  UNL1       -0.0433
      2 N          -1.3423    4.5759   -3.1336 N.4     1  UNL1        0.2309
      3 C          -1.6877    4.4473   -4.5960 C.3     1  UNL1       -0.0433
      4 C          -0.6502    3.3293   -2.6190 C.3     1  UNL1       -0.0323
      5 C          -0.4621    3.3307   -1.0999 C.3     1  UNL1       -0.0093
      6 C          -1.7805    3.3979   -0.3010 C.3     1  UNL1       -0.0105
      7 C          -1.5742    3.5519    1.2297 C.3     1  UNL1        0.1202
      8 O          -0.8098    4.7931    1.3718 O.3     1  UNL1       -0.3595
      9 C          -1.5864    5.8204    2.0246 C.3     1  UNL1        0.0747
     10 C          -2.8800    5.1839    2.3561 C.ar    1  UNL1       -0.0144
     11 C          -3.9699    5.7522    3.0068 C.ar    1  UNL1       -0.0386
     12 C          -5.0895    4.9497    3.2654 C.ar    1  UNL1        0.0521
     13 C          -5.0877    3.6051    2.8675 C.ar    1  UNL1       -0.0440
     14 C          -3.9887    3.0612    2.1897 C.ar    1  UNL1       -0.0540
     15 C          -2.8804    3.8628    1.9329 C.ar    1  UNL1       -0.0060
     16 C          -6.2340    5.5006    3.9299 C.1     1  UNL1        0.0992
     17 N          -7.1677    5.9545    4.4512 N.1     1  UNL1       -0.1909
     18 C          -0.8132    2.3809    1.8590 C.ar    1  UNL1       -0.0113
     19 C           0.4250    2.5694    2.5021 C.ar    1  UNL1       -0.0528
     20 C           1.0430    1.5242    3.1963 C.ar    1  UNL1       -0.0261
     21 C           0.4286    0.2821    3.2584 C.ar    1  UNL1        0.1234
     22 F           0.9838   -0.6983    3.9813 F       1  UNL1       -0.2055
     23 C          -0.7570    0.0446    2.5813 C.ar    1  UNL1       -0.0261
     24 C          -1.3571    1.0794    1.8602 C.ar    1  UNL1       -0.0528
     25 H           0.4185    5.7516   -3.3207 H       1  UNL1        0.0777
     26 H          -0.5140    6.0001   -1.7947 H       1  UNL1        0.0777
     27 H          -1.1280    6.6753   -3.3217 H       1  UNL1        0.0777
     28 H          -2.2425    4.6649   -2.6482 H       1  UNL1        0.2028
     29 H          -0.7618    4.3426   -5.1674 H       1  UNL1        0.0777
     30 H          -2.3290    3.5703   -4.7167 H       1  UNL1        0.0777
     31 H          -2.2347    5.3459   -4.8951 H       1  UNL1        0.0777
     32 H          -1.2672    2.4750   -2.9183 H       1  UNL1        0.0814
     33 H           0.3167    3.2622   -3.1312 H       1  UNL1        0.0814
     34 H           0.0687    2.4085   -0.8334 H       1  UNL1        0.0318
     35 H           0.2078    4.1498   -0.8165 H       1  UNL1        0.0318
     36 H          -2.3427    4.2746   -0.6465 H       1  UNL1        0.0301
     37 H          -2.3944    2.5202   -0.5338 H       1  UNL1        0.0301
     38 H          -1.7110    6.6517    1.3252 H       1  UNL1        0.0610
     39 H          -1.0502    6.1499    2.9184 H       1  UNL1        0.0610
     40 H          -3.9536    6.7921    3.3164 H       1  UNL1        0.0634
     41 H          -5.9442    2.9677    3.0907 H       1  UNL1        0.0630
     42 H          -4.0269    2.0161    1.9031 H       1  UNL1        0.0622
     43 H           0.9162    3.5405    2.4932 H       1  UNL1        0.0622
     44 H           1.9855    1.6801    3.7125 H       1  UNL1        0.0646
     45 H          -1.2185   -0.9370    2.6377 H       1  UNL1        0.0646
     46 H          -2.2803    0.8548    1.3340 H       1  UNL1        0.0622
@<TRIPOS>UNITY_ATOM_ATTR
2 1
charge 1
@<TRIPOS>BOND
     1     1     2    1
     2     2     3    1
     3     2     4    1
     4     4     5    1
     5     5     6    1
     6     7     8    1
     7     8     9    1
     8     9    10    1
     9    10    11   ar
    10    11    12   ar
    11    12    13   ar
    12    13    14   ar
    13    14    15   ar
    14     7    15    1
    15    10    15   ar
    16    12    16    1
    17    16    17    3
    18    18    19   ar
    19    19    20   ar
    20    20    21   ar
    21    21    22    1
    22    21    23   ar
    23    23    24   ar
    24    18    24   ar
    25     1    25    1
    26     1    26    1
    27     1    27    1
    28     2    28    1
    29     3    29    1
    30     3    30    1
    31     3    31    1
    32     4    32    1
    33     4    33    1
    34     5    34    1
    35     5    35    1
    36     6    36    1
    37     6    37    1
    38     9    38    1
    39     9    39    1
    40    11    40    1
    41    13    41    1
    42    14    42    1
    43    19    43    1
    44    20    44    1
    45    23    45    1
    46    24    46    1
    47     7    18    1
    48     7     6    1
@<TRIPOS>MOLECULE
mol_703_akc_books978_3_0365_3766_5
>684.sdf
 40 41 0 0 0
SMALL
GASTEIGER

@<TRIPOS>ATOM
      1 C          -1.3702    3.4678    2.9803 C.2     1  UNL1        0.2454
      2 N          -2.2841    4.1706    2.2016 N.am    1  UNL1       -0.2383
      3 C          -2.4137    5.6222    2.3318 C.3     1  UNL1        0.0260
      4 C          -1.9267    6.2284    3.6434 C.3     1  UNL1       -0.0180
      5 C          -0.7088    5.5409    4.1500 C.2     1  UNL1       -0.0776
      6 C          -0.4508    4.2664    3.8326 C.2     1  UNL1       -0.0031
      7 C          -2.9145    3.6366    1.0659 C.2     1  UNL1        0.2223
      8 O          -3.6618    4.3236    0.3609 O.2     1  UNL1       -0.2752
      9 O          -1.2802    2.2459    3.0547 O.2     1  UNL1       -0.2702
     10 C          -2.5983    2.2008    0.6731 C.3     1  UNL1        0.0285
     11 C          -3.2383    1.8197   -0.6646 C.3     1  UNL1       -0.0193
     12 C          -2.8219    0.4326   -1.0930 C.ar    1  UNL1       -0.0432
     13 C          -3.5105   -0.6878   -0.6243 C.ar    1  UNL1       -0.0549
     14 C          -3.0916   -1.9678   -0.9848 C.ar    1  UNL1       -0.0160
     15 C          -1.9608   -2.1529   -1.7884 C.ar    1  UNL1        0.1615
     16 C          -1.2631   -1.0359   -2.2755 C.ar    1  UNL1        0.1617
     17 C          -1.7117    0.2496   -1.9345 C.ar    1  UNL1       -0.0131
     18 O          -0.2011   -1.2520   -3.1135 O.3     1  UNL1       -0.4914
     19 C           0.7890   -0.2323   -3.1697 C.3     1  UNL1        0.0790
     20 O          -1.6761   -3.4712   -2.0426 O.3     1  UNL1       -0.4915
     21 C          -0.2942   -3.8032   -2.1160 C.3     1  UNL1        0.0790
     22 H          -1.8557    6.0640    1.4958 H       1  UNL1        0.0472
     23 H          -3.4658    5.9036    2.1885 H       1  UNL1        0.0472
     24 H          -1.7132    7.2918    3.4869 H       1  UNL1        0.0323
     25 H          -2.7083    6.1668    4.4097 H       1  UNL1        0.0323
     26 H          -0.0441    6.0764    4.8193 H       1  UNL1        0.0574
     27 H           0.3996    3.7332    4.2389 H       1  UNL1        0.0666
     28 H          -1.5095    2.0973    0.5867 H       1  UNL1        0.0362
     29 H          -2.9670    1.5298    1.4561 H       1  UNL1        0.0362
     30 H          -4.3324    1.8689   -0.5917 H       1  UNL1        0.0318
     31 H          -2.9594    2.5411   -1.4434 H       1  UNL1        0.0318
     32 H          -4.3758   -0.5740    0.0247 H       1  UNL1        0.0621
     33 H          -3.6376   -2.8345   -0.6202 H       1  UNL1        0.0655
     34 H          -1.2128    1.1303   -2.3281 H       1  UNL1        0.0658
     35 H           0.5081    0.5255   -3.9073 H       1  UNL1        0.0660
     36 H           0.9783    0.2228   -2.1913 H       1  UNL1        0.0660
     37 H           1.7241   -0.6961   -3.4989 H       1  UNL1        0.0660
     38 H           0.0855   -3.6524   -3.1307 H       1  UNL1        0.0660
     39 H           0.3058   -3.2578   -1.3787 H       1  UNL1        0.0660
     40 H          -0.1980   -4.8703   -1.8919 H       1  UNL1        0.0660
@<TRIPOS>BOND
     1     1     2   am
     2     2     3    1
     3     3     4    1
     4     4     5    1
     5     5     6    2
     6     1     6    1
     7     2     7   am
     8     7     8    2
     9     1     9    2
    10     7    10    1
    11    10    11    1
    12    11    12    1
    13    13    14   ar
    14    14    15   ar
    15    15    16   ar
    16    16    17   ar
    17    17    12   ar
    18    13    12   ar
    19    16    18    1
    20    18    19    1
    21    15    20    1
    22    20    21    1
    23     3    22    1
    24     3    23    1
    25     4    24    1
    26     4    25    1
    27     5    26    1
    28     6    27    1
    29    10    28    1
    30    10    29    1
    31    11    30    1
    32    11    31    1
    33    13    32    1
    34    14    33    1
    35    17    34    1
    36    19    35    1
    37    19    36    1
    38    19    37    1
    39    21    38    1
    40    21    39    1
    41    21    40    1
@<TRIPOS>MOLECULE
mol_704_akc_biomedicines10051136
>685.sdf
 26 27 0 0 0
SMALL
GASTEIGER

@<TRIPOS>ATOM
      1 C           1.7939    1.8245    0.0000 C.ar    1  UNL1       -0.0502
      2 C           3.1485    1.4953   -0.0182 C.ar    1  UNL1       -0.0610
      3 C           3.5364    0.1574   -0.0531 C.ar    1  UNL1       -0.0610
      4 C           2.5688   -0.8516   -0.0895 C.ar    1  UNL1       -0.0502
      5 C           1.2068   -0.5213   -0.0754 C.ar    1  UNL1        0.0344
      6 C           0.8230    0.8118   -0.0144 C.ar    1  UNL1        0.0340
      7 C          -0.5975    1.1733    0.0689 C.2     1  UNL1        0.2068
      8 C           0.1882   -1.5838   -0.1256 C.2     1  UNL1        0.2094
      9 C          -1.2637   -1.2164   -0.0052 C.2     1  UNL1        0.1061
     10 C          -1.5967    0.0745    0.1760 C.2     1  UNL1        0.1131
     11 O          -0.9146    2.3585    0.0589 O.2     1  UNL1       -0.2856
     12 O           0.5141   -2.7637   -0.2380 O.2     1  UNL1       -0.2852
     13 CL         -3.1580    0.6101    0.7155 Cl      1  UNL1       -0.0775
     14 N          -2.1023   -2.3210   -0.0344 N.am    1  UNL1       -0.2463
     15 C          -3.3939   -2.4003   -0.4741 C.2     1  UNL1        0.4044
     16 O          -4.0516   -1.5063   -0.9826 O.2     1  UNL1       -0.2261
     17 O          -3.8348   -3.6762   -0.3200 O.3     1  UNL1       -0.4535
     18 C          -5.1979   -3.8977   -0.6970 C.3     1  UNL1        0.0833
     19 H           1.4971    2.8721    0.0352 H       1  UNL1        0.0625
     20 H           3.8983    2.2838    0.0020 H       1  UNL1        0.0618
     21 H           4.5937   -0.0998   -0.0543 H       1  UNL1        0.0618
     22 H           2.8864   -1.8928   -0.1219 H       1  UNL1        0.0625
     23 H          -1.6421   -3.2272    0.0179 H       1  UNL1        0.1583
     24 H          -5.8360   -3.7599    0.1808 H       1  UNL1        0.0661
     25 H          -5.5324   -3.2443   -1.5095 H       1  UNL1        0.0661
     26 H          -5.2928   -4.9321   -1.0389 H       1  UNL1        0.0661
@<TRIPOS>BOND
     1     1     2   ar
     2     2     3   ar
     3     3     4   ar
     4     4     5   ar
     5     5     6   ar
     6     1     6   ar
     7     8     9    1
     8     9    10    2
     9     7    10    1
    10     5     8    1
    11     7     6    1
    12     7    11    2
    13     8    12    2
    14    10    13    1
    15     9    14    1
    16    14    15   am
    17    15    16    2
    18    15    17    1
    19    17    18    1
    20     1    19    1
    21     2    20    1
    22     3    21    1
    23     4    22    1
    24    14    23    1
    25    18    24    1
    26    18    25    1
    27    18    26    1
@<TRIPOS>MOLECULE
mol_705_akc_jparint2022102647
>686.sdf
 62 66 0 0 0
SMALL
GASTEIGER

@<TRIPOS>ATOM
      1 C           0.0719    0.3548   -2.0828 C.2     1  UNL1        0.2537
      2 N           0.8181    1.3567   -2.7039 N.am    1  UNL1       -0.2341
      3 C           0.2760    2.4518   -3.3757 C.2     1  UNL1        0.2537
      4 C          -1.1870    2.4385   -3.6019 C.ar    1  UNL1        0.0457
      5 C          -1.9683    1.4403   -3.0050 C.ar    1  UNL1        0.0064
      6 C          -1.3976    0.4180   -2.2376 C.ar    1  UNL1        0.0457
      7 C          -1.7751    3.4367   -4.3886 C.ar    1  UNL1       -0.0490
      8 C          -3.1543    3.4474   -4.5785 C.ar    1  UNL1       -0.0605
      9 C          -3.9482    2.4751   -3.9687 C.ar    1  UNL1       -0.0540
     10 C          -3.3719    1.4704   -3.1754 C.ar    1  UNL1       -0.0164
     11 C          -2.1980   -0.5501   -1.6189 C.ar    1  UNL1       -0.0490
     12 C          -4.1637    0.4966   -2.5449 C.ar    1  UNL1       -0.0540
     13 C          -3.5807   -0.5033   -1.7660 C.ar    1  UNL1       -0.0605
     14 O           0.5771   -0.5399   -1.4069 O.2     1  UNL1       -0.2695
     15 O           0.9451    3.4142   -3.7471 O.2     1  UNL1       -0.2695
     16 C           2.2595    1.3377   -2.4992 C.3     1  UNL1        0.0230
     17 C           2.6442    2.0276   -1.1855 C.3     1  UNL1       -0.0365
     18 C           4.1595    2.0415   -0.9857 C.3     1  UNL1       -0.0468
     19 C           4.5361    2.7222    0.3332 C.3     1  UNL1       -0.0125
     20 C           6.0430    2.8217    0.5758 C.3     1  UNL1       -0.0318
     21 N           6.7645    3.5744   -0.5161 N.4     1  UNL1        0.2374
     22 C           6.3182    5.0346   -0.6631 C.3     1  UNL1       -0.0158
     23 C           7.0596    5.7094   -1.8298 C.3     1  UNL1        0.0525
     24 N           8.5155    5.5641   -1.7012 N.pl3   1  UNL1       -0.3197
     25 C           9.0156    4.1921   -1.5068 C.3     1  UNL1        0.0525
     26 C           8.2895    3.5080   -0.3269 C.3     1  UNL1       -0.0158
     27 C           9.3031    6.6205   -1.2580 C.ar    1  UNL1        0.0314
     28 C           8.8247    7.6271   -0.4052 C.ar    1  UNL1       -0.0406
     29 C           9.6360    8.6963   -0.0045 C.ar    1  UNL1       -0.0586
     30 C          10.9456    8.7898   -0.4635 C.ar    1  UNL1       -0.0433
     31 C          11.4374    7.8091   -1.3152 C.ar    1  UNL1        0.0427
     32 C          10.6304    6.7360   -1.7022 C.ar    1  UNL1       -0.0223
     33 CL         13.0462    7.9233   -1.9132 Cl      1  UNL1       -0.0835
     34 H          -1.1627    4.2054   -4.8561 H       1  UNL1        0.0625
     35 H          -3.6141    4.2155   -5.1964 H       1  UNL1        0.0618
     36 H          -5.0262    2.5074   -4.1206 H       1  UNL1        0.0624
     37 H          -1.7480   -1.3401   -1.0206 H       1  UNL1        0.0625
     38 H          -5.2472    0.5122   -2.6524 H       1  UNL1        0.0624
     39 H          -4.2064   -1.2491   -1.2789 H       1  UNL1        0.0618
     40 H           2.6118    0.2989   -2.4913 H       1  UNL1        0.0470
     41 H           2.7542    1.8356   -3.3410 H       1  UNL1        0.0470
     42 H           2.2660    3.0583   -1.1873 H       1  UNL1        0.0281
     43 H           2.1625    1.5202   -0.3414 H       1  UNL1        0.0281
     44 H           4.5445    1.0148   -0.9891 H       1  UNL1        0.0268
     45 H           4.6141    2.5638   -1.8337 H       1  UNL1        0.0268
     46 H           4.0769    3.7156    0.3872 H       1  UNL1        0.0317
     47 H           4.0987    2.1499    1.1615 H       1  UNL1        0.0317
     48 H           6.2520    3.3354    1.5212 H       1  UNL1        0.0814
     49 H           6.4814    1.8187    0.6129 H       1  UNL1        0.0814
     50 H           6.5764    3.1091   -1.4120 H       1  UNL1        0.2034
     51 H           6.5180    5.5259    0.2940 H       1  UNL1        0.0830
     52 H           5.2448    5.0366   -0.8686 H       1  UNL1        0.0830
     53 H           6.7519    6.7563   -1.9278 H       1  UNL1        0.0516
     54 H           6.7560    5.2216   -2.7661 H       1  UNL1        0.0516
     55 H           8.8259    3.6232   -2.4251 H       1  UNL1        0.0516
     56 H          10.0958    4.1515   -1.3279 H       1  UNL1        0.0516
     57 H           8.5608    2.4485   -0.2740 H       1  UNL1        0.0830
     58 H           8.5146    3.9998    0.6258 H       1  UNL1        0.0830
     59 H           7.8109    7.6067   -0.0187 H       1  UNL1        0.0636
     60 H           9.2410    9.4627    0.6591 H       1  UNL1        0.0619
     61 H          11.5692    9.6289   -0.1654 H       1  UNL1        0.0632
     62 H          11.0346    6.0094   -2.4032 H       1  UNL1        0.0651
@<TRIPOS>UNITY_ATOM_ATTR
21 1
charge 1
@<TRIPOS>BOND
     1     1     2   am
     2     1     6    1
     3     1    14    2
     4     2     3   am
     5     2    16    1
     6     3     4    1
     7     3    15    2
     8     4     7   ar
     9     5    10   ar
    10     5     4   ar
    11     6     5   ar
    12     7     8   ar
    13     7    34    1
    14     8     9   ar
    15     8    35    1
    16     9    10   ar
    17     9    36    1
    18    10    12   ar
    19    11    13   ar
    20    11     6   ar
    21    11    37    1
    22    12    13   ar
    23    12    38    1
    24    13    39    1
    25    16    17    1
    26    16    40    1
    27    16    41    1
    28    17    18    1
    29    17    42    1
    30    17    43    1
    31    18    19    1
    32    18    44    1
    33    18    45    1
    34    19    20    1
    35    19    46    1
    36    19    47    1
    37    20    21    1
    38    20    48    1
    39    20    49    1
    40    21    50    1
    41    22    23    1
    42    22    21    1
    43    22    51    1
    44    22    52    1
    45    23    24    1
    46    23    53    1
    47    23    54    1
    48    24    25    1
    49    24    27    1
    50    25    26    1
    51    25    55    1
    52    25    56    1
    53    26    21    1
    54    26    57    1
    55    26    58    1
    56    27    28   ar
    57    27    32   ar
    58    28    29   ar
    59    28    59    1
    60    29    30   ar
    61    29    60    1
    62    30    31   ar
    63    30    61    1
    64    31    32   ar
    65    31    33    1
    66    32    62    1
@<TRIPOS>MOLECULE
mol_706_akc_21_82
>687.sdf
 73 76 0 0 0
SMALL
GASTEIGER

@<TRIPOS>ATOM
      1 C          -2.2411   -1.5169    0.2160 C.3     1  UNL1       -0.0367
      2 C          -3.7267   -1.3328   -0.0578 C.3     1  UNL1        0.0107
      3 C          -4.1629    0.0376    0.3956 C.2     1  UNL1        0.1561
      4 C          -3.2236    1.1632    0.1956 C.2     1  UNL1       -0.0194
      5 C          -1.9631    0.9670   -0.2341 C.2     1  UNL1       -0.0601
      6 C          -1.0855    2.1552   -0.5652 C.3     1  UNL1       -0.0305
      7 C           0.3130    2.0664    0.0440 C.3     1  UNL1       -0.0459
      8 C           0.9836    0.7139   -0.2416 C.3     1  UNL1       -0.0338
      9 C           0.0651   -0.4371    0.2647 C.3     1  UNL1       -0.0288
     10 C          -1.3468   -0.4216   -0.4350 C.3     1  UNL1       -0.0072
     11 C           0.7537   -1.8206    0.2306 C.3     1  UNL1       -0.0487
     12 C           2.1956   -1.8309    0.7583 C.3     1  UNL1       -0.0468
     13 C           3.0755   -0.7438    0.1107 C.3     1  UNL1       -0.0259
     14 C           2.3638    0.5990    0.4230 C.3     1  UNL1       -0.0322
     15 C           3.4056    1.6481    0.0762 C.3     1  UNL1       -0.0492
     16 C           4.7293    1.0190    0.5295 C.3     1  UNL1       -0.0492
     17 C           4.4775   -0.4993    0.7860 C.3     1  UNL1       -0.0328
     18 C           3.2272   -1.0189   -1.4063 C.3     1  UNL1       -0.0590
     19 C          -1.2518   -0.7023   -1.9540 C.3     1  UNL1       -0.0556
     20 C           5.6941   -1.3667    0.3268 C.3     1  UNL1       -0.0403
     21 C           5.5097   -2.8775    0.5128 C.3     1  UNL1       -0.0621
     22 C           7.0735   -0.9461    0.9130 C.3     1  UNL1       -0.0465
     23 C           7.2108   -0.9612    2.4433 C.3     1  UNL1       -0.0315
     24 C           8.5932   -0.4926    2.8804 C.2     1  UNL1       -0.0740
     25 C           9.7007   -1.5394    2.9853 C.3     1  UNL1       -0.0258
     26 C          10.8509   -1.2563    2.0112 C.3     1  UNL1       -0.0590
     27 C          10.2486   -1.6519    4.4148 C.3     1  UNL1       -0.0590
     28 O          -5.2878    0.2557    0.8418 O.2     1  UNL1       -0.2927
     29 H           0.9220    2.8809   -0.3672 H       1  UNL1        0.0271
     30 H           0.2515    2.2330    1.1270 H       1  UNL1        0.0271
     31 H           1.1119    0.6399   -1.3261 H       1  UNL1        0.0307
     32 H          -0.1103   -0.2331    1.3342 H       1  UNL1        0.0312
     33 H           0.1805   -2.5283    0.8424 H       1  UNL1        0.0268
     34 H           0.7484   -2.2306   -0.7829 H       1  UNL1        0.0268
     35 H           2.1767   -1.6955    1.8475 H       1  UNL1        0.0271
     36 H           2.5833   -2.8337    0.5768 H       1  UNL1        0.0271
     37 H           2.2066    0.6686    1.5117 H       1  UNL1        0.0309
     38 H           3.4269    1.8518   -1.0009 H       1  UNL1        0.0268
     39 H           3.2216    2.6003    0.5838 H       1  UNL1        0.0268
     40 H           5.4899    1.1973   -0.2383 H       1  UNL1        0.0268
     41 H           5.0791    1.4959    1.4527 H       1  UNL1        0.0268
     42 H           4.3537   -0.6353    1.8694 H       1  UNL1        0.0309
     43 H           3.7908   -0.2309   -1.9157 H       1  UNL1        0.0235
     44 H           3.7469   -1.9652   -1.5843 H       1  UNL1        0.0235
     45 H           2.2664   -1.1006   -1.9226 H       1  UNL1        0.0235
     46 H          -0.6151    0.0169   -2.4783 H       1  UNL1        0.0238
     47 H          -0.8514   -1.7003   -2.1585 H       1  UNL1        0.0238
     48 H          -2.2355   -0.6507   -2.4335 H       1  UNL1        0.0238
     49 H           5.7957   -1.2035   -0.7554 H       1  UNL1        0.0301
     50 H           6.0499   -3.2709    1.3743 H       1  UNL1        0.0233
     51 H           4.4737   -3.1773    0.6338 H       1  UNL1        0.0233
     52 H           5.8830   -3.4042   -0.3730 H       1  UNL1        0.0233
     53 H           7.8378   -1.6104    0.4863 H       1  UNL1        0.0271
     54 H           7.3228    0.0569    0.5456 H       1  UNL1        0.0271
     55 H           6.4515   -0.3073    2.8885 H       1  UNL1        0.0310
     56 H           7.0208   -1.9582    2.8551 H       1  UNL1        0.0310
     57 H           9.2881   -2.5216    2.7209 H       1  UNL1        0.0340
     58 H          11.3362   -0.2967    2.2185 H       1  UNL1        0.0235
     59 H          11.6202   -2.0342    2.0846 H       1  UNL1        0.0235
     60 H          10.4933   -1.2395    0.9765 H       1  UNL1        0.0235
     61 H           9.4537   -1.9170    5.1207 H       1  UNL1        0.0235
     62 H          11.0191   -2.4291    4.4750 H       1  UNL1        0.0235
     63 H          10.7043   -0.7153    4.7545 H       1  UNL1        0.0235
     64 H          -0.9986    2.2283   -1.6566 H       1  UNL1        0.0310
     65 H          -1.5504    3.0922   -0.2337 H       1  UNL1        0.0310
     66 H          -3.6434    2.1497    0.3601 H       1  UNL1        0.0652
     67 C           8.8054    0.8023    3.1691 C.2     1  UNL1       -0.0992
     68 H           8.0087    1.5397    3.0874 H       1  UNL1        0.0534
     69 H           9.7792    1.1692    3.4765 H       1  UNL1        0.0534
     70 H          -2.0938   -1.5110    1.3054 H       1  UNL1        0.0278
     71 H          -1.9427   -2.5145   -0.1322 H       1  UNL1        0.0278
     72 H          -4.2940   -2.0870    0.4980 H       1  UNL1        0.0345
     73 H          -3.9631   -1.4428   -1.1199 H       1  UNL1        0.0345
@<TRIPOS>BOND
     1     1     2    1
     2     1    10    1
     3     1    70    1
     4     1    71    1
     5     2     3    1
     6     2    72    1
     7     2    73    1
     8     3     4    1
     9     3    28    2
    10     4     5    2
    11     4    66    1
    12     5     6    1
    13     5    10    1
    14     6     7    1
    15     6    64    1
    16     6    65    1
    17     7     8    1
    18     7    29    1
    19     7    30    1
    20     8     9    1
    21     8    14    1
    22     8    31    1
    23     9    10    1
    24     9    11    1
    25     9    32    1
    26    10    19    1
    27    11    12    1
    28    11    33    1
    29    11    34    1
    30    12    13    1
    31    12    35    1
    32    12    36    1
    33    13    14    1
    34    13    17    1
    35    13    18    1
    36    14    15    1
    37    14    37    1
    38    15    16    1
    39    15    38    1
    40    15    39    1
    41    16    17    1
    42    16    40    1
    43    16    41    1
    44    18    43    1
    45    18    44    1
    46    18    45    1
    47    19    46    1
    48    19    47    1
    49    19    48    1
    50    20    49    1
    51    21    50    1
    52    21    51    1
    53    21    52    1
    54    22    23    1
    55    22    53    1
    56    22    54    1
    57    23    24    1
    58    23    55    1
    59    23    56    1
    60    24    25    1
    61    24    67    2
    62    25    26    1
    63    25    27    1
    64    25    57    1
    65    26    58    1
    66    26    59    1
    67    26    60    1
    68    27    61    1
    69    27    62    1
    70    27    63    1
    71    67    68    1
    72    67    69    1
    73    17    42    1
    74    17    20    1
    75    20    22    1
    76    20    21    1
@<TRIPOS>MOLECULE
mol_708_akc_antibiotics11101402
*****
 44 46 0 0 0
SMALL
GASTEIGER

@<TRIPOS>ATOM
      1 C           1.5673   -1.2341   -0.5102 C.ar    1  UNL1        0.1286
      2 C           2.7437   -0.4902   -0.3743 C.ar    1  UNL1       -0.0193
      3 C           2.6946    0.8153    0.0894 C.ar    1  UNL1       -0.0576
      4 C           1.4651    1.4015    0.3640 C.ar    1  UNL1       -0.0503
      5 C           0.2542    0.6983    0.2090 C.ar    1  UNL1        0.0280
      6 C           0.2960   -0.6822   -0.1450 C.ar    1  UNL1        0.0380
      7 C          -0.9451   -1.3929   -0.1254 C.ar    1  UNL1        0.0331
      8 C          -0.9970    1.3340    0.3971 C.ar    1  UNL1        0.1279
      9 C          -2.1953    0.6267    0.3390 C.ar    1  UNL1       -0.0187
     10 C          -2.1697   -0.7377    0.0890 C.ar    1  UNL1       -0.0468
     11 O           1.5505   -2.5007   -1.0371 O.3     1  UNL1       -0.4945
     12 C           2.7549   -3.0445   -1.5564 C.3     1  UNL1        0.0788
     13 O          -1.1088    2.6703    0.7023 O.3     1  UNL1       -0.4945
     14 C          -0.7939    3.5108   -0.4123 C.3     1  UNL1        0.0788
     15 C          -1.0572   -2.8677   -0.2737 C.2     1  UNL1        0.1868
     16 O          -1.8294   -3.3414   -1.1017 O.2     1  UNL1       -0.2873
     17 C          -0.3106   -3.7158    0.7086 C.2     1  UNL1       -0.0138
     18 C          -0.2798   -5.0442    0.5099 C.2     1  UNL1       -0.0510
     19 C           0.4089   -6.0452    1.3404 C.ar    1  UNL1       -0.0248
     20 C           1.1759   -6.9240    3.4806 C.ar    1  UNL1       -0.0309
     21 C           0.6272   -5.8841    2.7160 C.ar    1  UNL1       -0.0524
     22 C           0.7725   -7.2622    0.7383 C.ar    1  UNL1       -0.0524
     23 C           1.3219   -8.3068    1.4898 C.ar    1  UNL1       -0.0309
     24 C           1.5080   -8.1380    2.8649 C.ar    1  UNL1        0.1262
     25 N           2.0280   -9.2518    3.6716 N.pl3   1  UNL1        0.0564
     26 O           2.1527   -9.0709    4.8898 O.2     1  UNL1       -0.1261
     27 O           2.3047  -10.3080    3.0842 O.2     1  UNL1       -0.1261
     28 H           3.7163   -0.9017   -0.6195 H       1  UNL1        0.0654
     29 H           3.6101    1.3881    0.2119 H       1  UNL1        0.0619
     30 H           1.4610    2.4310    0.7129 H       1  UNL1        0.0625
     31 H          -3.1411    1.1352    0.4999 H       1  UNL1        0.0654
     32 H          -3.1024   -1.2985    0.0677 H       1  UNL1        0.0626
     33 H           3.1642   -2.4176   -2.3549 H       1  UNL1        0.0660
     34 H           3.4865   -3.2025   -0.7571 H       1  UNL1        0.0660
     35 H           2.5189   -4.0216   -1.9885 H       1  UNL1        0.0660
     36 H           0.0848    4.1123   -0.1583 H       1  UNL1        0.0660
     37 H          -0.6024    2.9658   -1.3442 H       1  UNL1        0.0660
     38 H          -1.6314    4.1952   -0.5764 H       1  UNL1        0.0660
     39 H           0.2088   -3.2217    1.5173 H       1  UNL1        0.0656
     40 H          -0.8032   -5.4529   -0.3542 H       1  UNL1        0.0625
     41 H           1.3135   -6.7768    4.5502 H       1  UNL1        0.0640
     42 H           0.3439   -4.9629    3.2202 H       1  UNL1        0.0624
     43 H           0.6154   -7.4147   -0.3283 H       1  UNL1        0.0624
     44 H           1.5755   -9.2405    0.9921 H       1  UNL1        0.0640
@<TRIPOS>BOND
     1     1     2   ar
     2     2     3   ar
     3     3     4   ar
     4     4     5   ar
     5     5     6   ar
     6     1     6   ar
     7     8     9   ar
     8     9    10   ar
     9     7    10   ar
    10     5     8   ar
    11     7     6   ar
    12     1    11    1
    13    11    12    1
    14     8    13    1
    15    13    14    1
    16     7    15    1
    17    15    16    2
    18    15    17    1
    19    17    18    2
    20    18    19    1
    21    20    21   ar
    22    22    23   ar
    23    23    24   ar
    24    20    24   ar
    25    21    19   ar
    26    19    22   ar
    27    24    25    1
    28    25    26    2
    29    25    27    2
    30     2    28    1
    31     3    29    1
    32     4    30    1
    33     9    31    1
    34    10    32    1
    35    12    33    1
    36    12    34    1
    37    12    35    1
    38    14    36    1
    39    14    37    1
    40    14    38    1
    41    17    39    1
    42    18    40    1
    43    20    41    1
    44    21    42    1
    45    22    43    1
    46    23    44    1
@<TRIPOS>MOLECULE
mol_709_akc_fphar20231122287
690mol
 39 42 0 0 0
SMALL
GASTEIGER

@<TRIPOS>ATOM
      1 C          -1.3913   -1.2828   -0.7189 C.ar    1  UNL1        0.1255
      2 C          -1.9361   -2.5102   -0.3174 C.ar    1  UNL1        0.0360
      3 C          -3.2885   -2.5881    0.0283 C.ar    1  UNL1       -0.0496
      4 C          -4.0932   -1.4486   -0.0368 C.ar    1  UNL1       -0.0609
      5 C          -3.5521   -0.2346   -0.4649 C.ar    1  UNL1       -0.0583
      6 C          -2.2028   -0.1541   -0.8088 C.ar    1  UNL1       -0.0195
      7 O          -0.0723   -1.1173   -1.0328 O.3     1  UNL1       -0.5061
      8 C          -1.1209   -3.7351   -0.2142 C.2     1  UNL1        0.0562
      9 N           0.1767   -3.6884   -0.2351 N.2     1  UNL1       -0.1886
     10 N           0.7638   -4.9065   -0.0367 N.pl3   1  UNL1       -0.2204
     11 N           4.9723   -5.0066    0.1298 N.ar    1  UNL1       -0.2281
     12 C           4.1820   -5.7809   -0.6088 C.ar    1  UNL1        0.1194
     13 N           2.8431   -5.7734   -0.6509 N.ar    1  UNL1       -0.2186
     14 C           2.1686   -4.9017    0.1400 C.ar    1  UNL1        0.1498
     15 C           3.6672   -2.5521    2.6451 C.ar    1  UNL1       -0.0043
     16 S           5.1138   -3.1098    1.9590 S.2     1  UNL1       -0.0732
     17 C           4.2801   -4.1867    0.9366 C.ar    1  UNL1        0.1138
     18 C           2.8953   -4.0913    1.0461 C.ar    1  UNL1        0.0524
     19 C           2.5493   -3.1863    2.1274 C.ar    1  UNL1       -0.0246
     20 C           1.1960   -2.9368    2.7307 C.3     1  UNL1       -0.0262
     21 C           1.1350   -1.5877    3.4592 C.3     1  UNL1       -0.0487
     22 C           2.3153   -1.4269    4.4229 C.3     1  UNL1       -0.0483
     23 C           3.6601   -1.4736    3.6863 C.3     1  UNL1       -0.0211
     24 H          -3.7248   -3.5249    0.3697 H       1  UNL1        0.0625
     25 H          -5.1409   -1.5020    0.2490 H       1  UNL1        0.0618
     26 H          -4.1802    0.6514   -0.5243 H       1  UNL1        0.0619
     27 H          -1.7785    0.7915   -1.1392 H       1  UNL1        0.0654
     28 H           0.3946   -1.9558   -0.8174 H       1  UNL1        0.2922
     29 H          -1.6607   -4.6914   -0.0823 H       1  UNL1        0.0852
     30 H           0.6159   -5.5807   -0.7940 H       1  UNL1        0.1760
     31 H           4.6787   -6.4955   -1.2569 H       1  UNL1        0.1048
     32 H           0.9916   -3.7431    3.4472 H       1  UNL1        0.0314
     33 H           0.3980   -2.9560    1.9953 H       1  UNL1        0.0314
     34 H           0.1898   -1.5119    4.0083 H       1  UNL1        0.0268
     35 H           1.1488   -0.7723    2.7246 H       1  UNL1        0.0268
     36 H           2.2278   -0.4802    4.9674 H       1  UNL1        0.0269
     37 H           2.2788   -2.2300    5.1702 H       1  UNL1        0.0269
     38 H           3.8302   -0.5100    3.1895 H       1  UNL1        0.0318
     39 H           4.4680   -1.6164    4.4130 H       1  UNL1        0.0318
@<TRIPOS>BOND
     1     1     2   ar
     2     2     3   ar
     3     3     4   ar
     4     4     5   ar
     5     5     6   ar
     6     1     6   ar
     7     1     7    1
     8     9    10    1
     9    17    11   ar
    10    11    12   ar
    11    12    13   ar
    12    13    14   ar
    13    18    14   ar
    14    15    16   ar
    15    16    17   ar
    16    17    18   ar
    17    18    19   ar
    18    15    19   ar
    19    19    20    1
    20    20    21    1
    21    21    22    1
    22    22    23    1
    23    15    23    1
    24    10    14    1
    25     8     9    2
    26     2     8    1
    27     3    24    1
    28     4    25    1
    29     5    26    1
    30     6    27    1
    31     7    28    1
    32     8    29    1
    33    10    30    1
    34    12    31    1
    35    20    32    1
    36    20    33    1
    37    21    34    1
    38    21    35    1
    39    22    36    1
    40    22    37    1
    41    23    38    1
    42    23    39    1
@<TRIPOS>MOLECULE
mol_70_akc_jbmc201907009
>69.sdf
 49 52 0 0 0
SMALL
GASTEIGER

@<TRIPOS>ATOM
      1 C          -1.2348    0.7046    2.0104 C.3     1  UNL1        0.0154
      2 N          -1.2989    0.4693    0.5841 N.ar    1  UNL1       -0.3066
      3 C          -0.7664    1.2711   -0.4159 C.ar    1  UNL1        0.1695
      4 N          -1.1022    0.8110   -1.6119 N.ar    1  UNL1       -0.2315
      5 C          -1.8240   -0.3281   -1.3966 C.ar    1  UNL1        0.0774
      6 C          -1.9539   -0.5599   -0.0517 C.ar    1  UNL1        0.2157
      7 N          -2.6424   -1.6338    0.5790 N.pl3   1  UNL1        0.0750
      8 O          -2.6111   -1.6976    1.8129 O.2     1  UNL1       -0.1246
      9 O          -3.2185   -2.4306   -0.1684 O.2     1  UNL1       -0.1246
     10 C           0.0262    2.4499   -0.2169 C.ar    1  UNL1        0.1689
     11 N           0.7919    2.6369    0.8333 N.ar    1  UNL1       -0.1365
     12 N           1.3769    3.8800    0.8250 N.ar    1  UNL1       -0.1254
     13 C           1.0679    4.6128   -0.2323 C.ar    1  UNL1        0.1845
     14 S           0.0447    3.7471   -1.3316 S.2     1  UNL1       -0.0276
     15 N           1.4712    5.9146   -0.4021 N.pl3   1  UNL1       -0.3081
     16 C           2.5347    6.3740    0.4956 C.3     1  UNL1        0.0154
     17 C           2.4381    7.8783    0.6864 C.3     1  UNL1       -0.0214
     18 C           2.4485    8.6794   -0.6286 C.3     1  UNL1        0.0133
     19 C           1.4194    8.0715   -1.6026 C.3     1  UNL1       -0.0214
     20 C           1.4486    6.5459   -1.7228 C.3     1  UNL1        0.0154
     21 N           3.7656    9.0138   -1.2303 N.3     1  UNL1       -0.2993
     22 C           4.6120    9.7820   -0.3006 C.3     1  UNL1       -0.0008
     23 C           5.9070   10.2758   -0.9445 C.3     1  UNL1       -0.0402
     24 C           6.6869    9.1116   -1.5353 C.3     1  UNL1       -0.0507
     25 C           5.8044    8.3716   -2.5274 C.3     1  UNL1       -0.0402
     26 C           4.4923    7.9218   -1.8777 C.3     1  UNL1       -0.0008
     27 H          -2.2513    0.6981    2.4122 H       1  UNL1        0.0457
     28 H          -0.6225   -0.0796    2.4622 H       1  UNL1        0.0457
     29 H          -0.8065    1.6786    2.2396 H       1  UNL1        0.0457
     30 H          -2.2118   -0.9186   -2.2202 H       1  UNL1        0.0869
     31 H           3.5110    6.0675    0.1105 H       1  UNL1        0.0465
     32 H           2.4437    5.9230    1.4918 H       1  UNL1        0.0465
     33 H           3.2115    8.2128    1.3832 H       1  UNL1        0.0295
     34 H           1.4866    8.0898    1.1955 H       1  UNL1        0.0295
     35 H           2.0260    9.6629   -0.3728 H       1  UNL1        0.0463
     36 H           0.4201    8.3497   -1.2356 H       1  UNL1        0.0295
     37 H           1.5043    8.5308   -2.5950 H       1  UNL1        0.0295
     38 H           0.5521    6.2670   -2.2883 H       1  UNL1        0.0465
     39 H           2.3039    6.2006   -2.3102 H       1  UNL1        0.0465
     40 H           4.8822    9.1782    0.5727 H       1  UNL1        0.0427
     41 H           4.0622   10.6588    0.0631 H       1  UNL1        0.0427
     42 H           6.5191   10.7875   -0.1933 H       1  UNL1        0.0278
     43 H           5.6789   11.0080   -1.7288 H       1  UNL1        0.0278
     44 H           7.5955    9.4717   -2.0285 H       1  UNL1        0.0266
     45 H           6.9994    8.4285   -0.7353 H       1  UNL1        0.0266
     46 H           5.5887    9.0216   -3.3846 H       1  UNL1        0.0278
     47 H           6.3380    7.4964   -2.9158 H       1  UNL1        0.0278
     48 H           3.8895    7.4971   -2.6837 H       1  UNL1        0.0427
     49 H           4.7257    7.1272   -1.1660 H       1  UNL1        0.0427
@<TRIPOS>BOND
     1     1    27    1
     2     1    28    1
     3     1    29    1
     4     2     1    1
     5     3     2   ar
     6     4     3   ar
     7     5     4   ar
     8     5    30    1
     9     6     5   ar
    10     6     2   ar
    11     7     6    1
    12     8     7    2
    13     9     7    2
    14    10     3    1
    15    11    10   ar
    16    12    11   ar
    17    13    12   ar
    18    14    13   ar
    19    14    10   ar
    20    15    13    1
    21    16    15    1
    22    16    31    1
    23    16    32    1
    24    17    16    1
    25    17    33    1
    26    17    34    1
    27    18    17    1
    28    18    35    1
    29    19    18    1
    30    19    36    1
    31    19    37    1
    32    20    19    1
    33    20    15    1
    34    20    38    1
    35    20    39    1
    36    21    18    1
    37    22    21    1
    38    22    40    1
    39    22    41    1
    40    23    22    1
    41    23    42    1
    42    23    43    1
    43    24    23    1
    44    24    44    1
    45    24    45    1
    46    25    24    1
    47    25    46    1
    48    25    47    1
    49    26    25    1
    50    26    21    1
    51    26    48    1
    52    26    49    1
@<TRIPOS>MOLECULE
mol_710_akc_journalpone0124183
*****
 35 37 0 0 0
SMALL
GASTEIGER

@<TRIPOS>ATOM
      1 N1         -1.3259   -0.0288   -0.7185 N.4     1  <1>         0.2402
      2 C1         -0.9035   -1.2151    0.0952 C.3     1  <1>         0.0308
      3 C2         -0.2972    1.0870   -0.5358 C.3     1  <1>         0.0363
      4 C3          0.8724    0.4278    0.2380 C.3     1  <1>         0.1330
      5 C4         -0.9220    2.2867    0.1092 C.ar    1  <1>         0.0460
      6 C5          0.6188   -1.0755    0.0621 C.3     1  <1>         0.1310
      7 O1          2.1479    0.7773   -0.3115 O.3     1  <1>        -0.3830
      8 O2          1.1048   -1.4218   -1.2553 O.3     1  <1>        -0.3833
      9 C6         -1.5377   -1.1963    1.4978 C.3     1  <1>         0.0893
     10 O3         -1.1456   -0.0510    2.2348 O.3     1  <1>        -0.3894
     11 C7         -0.3453    3.2613    0.9051 C.ar    1  <1>         0.0130
     12 C8         -2.2912    2.6445   -0.0090 C.ar    1  <1>         0.1021
     13 C9         -2.5286    3.7574    0.7729 C.ar    1  <1>         0.1055
     14 N2         -1.3243    4.1387    1.3018 N.ar    1  <1>        -0.3563
     15 N3         -3.2578    2.0015   -0.7096 N.ar    1  <1>        -0.2333
     16 C10        -3.8153    4.2621    0.8841 C.ar    1  <1>         0.1435
     17 N4         -4.7733    3.6780    0.1526 N.ar    1  <1>        -0.2190
     18 C11        -4.4539    2.6163   -0.6119 C.ar    1  <1>         0.1188
     19 N5         -4.1640    5.3060    1.7160 N.pl3   1  <1>        -0.3414
     20 H1         -1.3490   -0.2441   -1.7222 H       1  <1>         0.2025
     21 H2         -2.2646    0.3319   -0.4833 H       1  <1>         0.2025
     22 H3         -1.2463   -2.0980   -0.4536 H       1  <1>         0.0900
     23 H4          0.0198    1.3630   -1.5492 H       1  <1>         0.0931
     24 H5          0.8896    0.7137    1.2925 H       1  <1>         0.0682
     25 H6          1.1457   -1.6868    0.8003 H       1  <1>         0.0679
     26 H7          2.4364    0.0302   -0.8771 H       1  <1>         0.2102
     27 H8          0.8058   -2.3197   -1.4950 H       1  <1>         0.2102
     28 H9         -2.6301   -1.1957    1.4212 H       1  <1>         0.0614
     29 H10        -1.2294   -2.0859    2.0540 H       1  <1>         0.0614
     30 H11        -1.4646   -0.1562    3.1539 H       1  <1>         0.2097
     31 H12         0.6819    3.4060    1.2285 H       1  <1>         0.0812
     32 H13        -1.1838    4.9658    1.8737 H       1  <1>         0.1655
     33 H14        -5.2573    2.2062   -1.2080 H       1  <1>         0.1048
     34 H15        -3.7013    5.3156    2.6136 H       1  <1>         0.1438
     35 H16        -5.1769    5.3747    1.7743 H       1  <1>         0.1438
@<TRIPOS>UNITY_ATOM_ATTR
1 1
charge 1
@<TRIPOS>BOND
     1     1     2    1
     2     1     3    1
     3     1    20    1
     4     1    21    1
     5     3     4    1
     6     4     6    1
     7     4     7    1
     8     4    24    1
     9     5    11   ar
    10     5    12   ar
    11     6     2    1
    12     6     8    1
    13     6    25    1
    14     7    26    1
    15     8    27    1
    16     9    10    1
    17     9    28    1
    18     9    29    1
    19    10    30    1
    20    11    31    1
    21    12    13   ar
    22    12    15   ar
    23    13    14   ar
    24    13    16   ar
    25    14    11   ar
    26    14    32    1
    27    15    18   ar
    28    16    17   ar
    29    16    19    1
    30    18    17   ar
    31    18    33    1
    32    19    34    1
    33    19    35    1
    34     2    22    1
    35     2     9    1
    36     3    23    1
    37     3     5    1
@<TRIPOS>MOLECULE
mol_711_journalpone0124183
*****
 34 36 0 0 0
SMALL
GASTEIGER

@<TRIPOS>ATOM
      1 N1         -1.3645    0.0585   -0.4636 N.4     1  <1>         0.2402
      2 C1         -0.9571   -1.2490    0.1679 C.3     1  <1>         0.0308
      3 C2         -0.1625    0.9748   -0.5599 C.3     1  <1>         0.0363
      4 C3          0.9314    0.2921    0.2745 C.3     1  <1>         0.1330
      5 C4         -0.5904    2.3526   -0.1829 C.ar    1  <1>         0.0460
      6 C5          0.5759   -1.1959    0.1604 C.3     1  <1>         0.1310
      7 O1          2.2373    0.5327   -0.2530 O.3     1  <1>        -0.3830
      8 O2          1.1319   -1.7289   -1.0527 O.3     1  <1>        -0.3833
      9 C6         -1.5547   -1.3183    1.5843 C.3     1  <1>         0.0893
     10 O3         -1.1986   -0.1478    2.3106 O.3     1  <1>        -0.3894
     11 C7         -0.2913    3.1307    0.9268 C.ar    1  <1>         0.0130
     12 C8         -1.5080    3.1213   -0.9282 C.ar    1  <1>         0.1040
     13 C9         -1.7423    4.3064   -0.2981 C.ar    1  <1>         0.1306
     14 N2         -0.9877    4.3225    0.8417 N.ar    1  <1>        -0.3547
     15 N3         -2.1429    2.7342   -2.1127 N.ar    1  <1>        -0.2352
     16 C10        -2.6388    5.2878   -0.8092 C.ar    1  <1>         0.2754
     17 N4         -3.1839    4.8900   -2.0088 N.ar    1  <1>        -0.3117
     18 C11        -2.9239    3.6656   -2.5850 C.ar    1  <1>         0.0967
     19 O4         -2.9150    6.3463   -0.2593 O.2     1  <1>        -0.2656
     20 H1         -1.8156   -0.0006   -1.3850 H       1  <1>         0.2025
     21 H2         -2.0375    0.5396    0.1528 H       1  <1>         0.2025
     22 H3         -1.3512   -2.0506   -0.4647 H       1  <1>         0.0900
     23 H4          0.1347    0.9699   -1.6173 H       1  <1>         0.0931
     24 H5          0.9250    0.6177    1.3182 H       1  <1>         0.0682
     25 H6          1.0198   -1.7739    0.9769 H       1  <1>         0.0679
     26 H7          2.5683   -0.3041   -0.6421 H       1  <1>         0.2102
     27 H8          0.5803   -1.5315   -1.8297 H       1  <1>         0.2102
     28 H9         -2.6477   -1.3605    1.5371 H       1  <1>         0.0614
     29 H10        -1.1890   -2.2018    2.1163 H       1  <1>         0.0614
     30 H11        -1.3372   -0.3306    3.2627 H       1  <1>         0.2097
     31 H12         0.3556    2.9567    1.7796 H       1  <1>         0.0812
     32 H13        -0.9623    5.0845    1.5122 H       1  <1>         0.1655
     33 H14        -3.4666    3.5091   -3.5291 H       1  <1>         0.1028
     34 H15        -3.8240    5.5439   -2.4400 H       1  <1>         0.1698
@<TRIPOS>UNITY_ATOM_ATTR
1 1
charge 1
@<TRIPOS>BOND
     1     1     2    1
     2     1     3    1
     3     1    20    1
     4     1    21    1
     5     3     4    1
     6     4     6    1
     7     4     7    1
     8     4    24    1
     9     5    11   ar
    10     5    12   ar
    11     6     2    1
    12     6     8    1
    13     6    25    1
    14     7    26    1
    15     8    27    1
    16     9    10    1
    17     9    28    1
    18     9    29    1
    19    10    30    1
    20    11    31    1
    21    12    13   ar
    22    12    15   ar
    23    13    14   ar
    24    13    16   ar
    25    14    11   ar
    26    14    32    1
    27    15    18   ar
    28    16    17   ar
    29    16    19    2
    30    17    34    1
    31    18    17   ar
    32    18    33    1
    33     2    22    1
    34     2     9    1
    35     3    23    1
    36     3     5    1
@<TRIPOS>MOLECULE
mol_712_akc_journalpone0124183
*****
 35 36 0 0 0
SMALL
GASTEIGER

@<TRIPOS>ATOM
      1 N           1.0180   -0.2958   -0.7749 N.4     1  SER1        0.2357
      2 CA          2.4853   -0.6221   -1.0971 C.3     1  SER1        0.0248
      3 C           0.2350   -1.4507   -0.2947 C.3     0  UNK0       -0.0033
      4 C          -1.2457   -1.2803   -0.2581 C.2     0  UNK0        0.0626
      5 C           3.2619    0.6967   -0.9430 C.3     1  SER1        0.0890
      6 O           2.7745    1.3377    0.2423 O.3     1  SER1       -0.3894
      7 CB          2.5421   -1.1700   -2.5279 C.3     1  SER1        0.0890
      8 OG          1.5710   -0.4547   -3.3083 O.3     1  SER1       -0.3894
      9 C          -2.1076   -0.9799   -1.2519 C.2     0  UNK0        0.1135
     10 C          -2.0160   -1.5805    0.9875 C.3     0  UNK0        0.1484
     11 C          -3.3007   -2.0890    0.3656 C.3     0  UNK0        0.2031
     12 N          -3.4673   -1.1765   -0.8236 N.pl3   0  UNK0       -0.3940
     13 N          -1.4815   -2.5818    1.8989 N.2     0  UNK0       -0.2613
     14 C          -4.2795   -2.1030    1.4959 C.2     0  UNK0        0.2831
     15 N          -3.7292   -2.6751    2.6342 N.am    0  UNK0       -0.2713
     16 C          -2.3851   -2.9881    2.7384 C.2     0  UNK0        0.0831
     17 O          -5.4239   -1.6919    1.3845 O.2     0  UNK0       -0.2683
     18 H1          0.6628    0.1171   -1.6507 H       1  SER1        0.2021
     19 H2          1.0758    0.4630   -0.0686 H       1  SER1        0.2021
     20 HA          2.8338   -1.3431   -0.3494 H       1  SER1        0.0896
     21 H           0.6330   -1.6842    0.6992 H       0  UNK0        0.0866
     22 H1          3.0935    1.3725   -1.7873 H       1  SER1        0.0614
     23 H           3.4089    2.0565    0.4542 H       1  SER1        0.2097
     24 HB1         3.5363   -1.0540   -2.9694 H       1  SER1        0.0614
     25 HB2         2.2633   -2.2280   -2.5490 H       1  SER1        0.0614
     26 H           1.7998   -0.6128   -4.2502 H       1  SER1        0.2097
     27 H          -4.0784   -1.6218   -1.5276 H       0  UNK0        0.3729
     28 H          -2.1415   -3.6411    3.5933 H       0  UNK0        0.0997
     29 H          -4.3604   -2.8807    3.4053 H       0  UNK0        0.1559
     30 H           0.4655   -2.3010   -0.9471 H       0  UNK0        0.0866
     31 H2          4.3348    0.5033   -0.8432 H       1  SER1        0.0614
     32 H          -1.8335   -0.7591   -2.2833 H       0  UNK0        0.1314
     33 H          -2.1463   -0.6333    1.5358 H       0  UNK0        0.0666
     34 H          -3.2148   -3.1108   -0.0352 H       0  UNK0        0.1133
     35 H          -3.9561   -0.3090   -0.5411 H       0  UNK0        0.3729
@<TRIPOS>UNITY_ATOM_ATTR
1 1
charge 1
12 1
charge 1
@<TRIPOS>BOND
     1     1     2    1
     2     1     3    1
     3     1    18    1
     4     1    19    1
     5     2     7    1
     6     2    20    1
     7     3    21    1
     8     4     3    1
     9     4     9    2
    10     5     2    1
    11     5     6    1
    12     5    22    1
    13     6    23    1
    14     7     8    1
    15     7    24    1
    16     7    25    1
    17     8    26    1
    18     9    32    1
    19    10     4    1
    20    10    11    1
    21    10    13    1
    22    11    12    1
    23    11    14    1
    24    12     9    1
    25    12    27    1
    26    13    16    2
    27    14    15   am
    28    14    17    2
    29    15    29    1
    30    16    15    1
    31    16    28    1
    32    30     3    1
    33    31     5    1
    34    10    33    1
    35    11    34    1
    36    12    35    1
@<TRIPOS>MOLECULE
mol_713_akc_nature19339
*****
 35 38 0 0 0
SMALL
GASTEIGER

@<TRIPOS>ATOM
      1 C           0.8273   -1.3914    0.4176 C.ar    1  UNL1       -0.0171
      2 C           2.0712   -0.7817    0.2147 C.ar    1  UNL1       -0.0582
      3 C           2.1757    0.5888   -0.0581 C.ar    1  UNL1       -0.0595
      4 C           1.0344    1.4023   -0.1427 C.ar    1  UNL1       -0.0326
      5 C          -0.2175    0.8047    0.0507 C.ar    1  UNL1        0.1099
      6 C          -0.2752   -0.5516    0.3234 C.ar    1  UNL1        0.1557
      7 N          -1.4874    1.3254    0.0038 N.ar    1  UNL1       -0.2089
      8 C          -2.2602    0.2883    0.2782 C.ar    1  UNL1        0.2299
      9 O          -1.5866   -0.8925    0.4616 O.2     1  UNL1       -0.4352
     10 C          -3.7158    0.2034    0.2575 C.ar    1  UNL1        0.0569
     11 C          -4.4622   -0.5587    1.1672 C.ar    1  UNL1        0.0533
     12 C          -5.8517   -0.6296    1.0429 C.ar    1  UNL1       -0.0409
     13 C          -6.5093    0.0457    0.0111 C.ar    1  UNL1       -0.0390
     14 C          -5.7921    0.8109   -0.9065 C.ar    1  UNL1        0.0346
     15 C          -4.4013    0.9052   -0.7584 C.ar    1  UNL1       -0.0268
     16 CL         -3.7545   -1.4146    2.4937 Cl      1  UNL1       -0.0828
     17 N          -6.3772    1.4575   -2.0151 N.am    1  UNL1       -0.2790
     18 C          -7.7115    1.4409   -2.3970 C.2     1  UNL1        0.2835
     19 O          -8.6290    0.9684   -1.7326 O.2     1  UNL1       -0.2665
     20 C          -7.9468    2.0216   -3.7048 C.ar    1  UNL1        0.1893
     21 C          -9.1162    2.1459   -4.4318 C.ar    1  UNL1       -0.0113
     22 C          -8.7707    2.7436   -5.6652 C.ar    1  UNL1       -0.0231
     23 C          -7.4128    2.9569   -5.6177 C.ar    1  UNL1        0.0928
     24 O          -6.9001    2.5263   -4.4338 O.2     1  UNL1       -0.4583
     25 H           0.7241   -2.4483    0.6282 H       1  UNL1        0.0655
     26 H           2.9749   -1.3865    0.2689 H       1  UNL1        0.0619
     27 H           3.1583    1.0316   -0.2103 H       1  UNL1        0.0618
     28 H           1.1127    2.4621   -0.3569 H       1  UNL1        0.0640
     29 H          -6.4385   -1.2208    1.7429 H       1  UNL1        0.0633
     30 H          -7.5881   -0.0626   -0.0466 H       1  UNL1        0.0636
     31 H          -3.8199    1.5056   -1.4576 H       1  UNL1        0.0644
     32 H          -5.7576    1.9328   -2.6621 H       1  UNL1        0.1552
     33 H         -10.0941    1.8212   -4.1007 H       1  UNL1        0.0657
     34 H          -9.4290    2.9829   -6.4889 H       1  UNL1        0.0649
     35 H          -6.7002    3.3784   -6.3136 H       1  UNL1        0.1029
@<TRIPOS>BOND
     1     1     2   ar
     2     2     3   ar
     3     3     4   ar
     4     4     5   ar
     5     5     6   ar
     6     1     6   ar
     7     7     8   ar
     8     8     9   ar
     9     5     7   ar
    10     6     9   ar
    11    11    12   ar
    12    12    13   ar
    13    13    14   ar
    14    14    15   ar
    15    10    11   ar
    16    10    15   ar
    17     8    10    1
    18    11    16    1
    19    14    17    1
    20    17    18   am
    21    18    19    2
    22    21    22   ar
    23    22    23   ar
    24    23    24   ar
    25    20    21   ar
    26    20    24   ar
    27    18    20    1
    28     1    25    1
    29     2    26    1
    30     3    27    1
    31     4    28    1
    32    12    29    1
    33    13    30    1
    34    15    31    1
    35    17    32    1
    36    21    33    1
    37    22    34    1
    38    23    35    1
@<TRIPOS>MOLECULE
mol_714_akc_nature19339
*****
 49 52 0 0 0
SMALL
GASTEIGER

@<TRIPOS>ATOM
      1 C           0.8546   -1.4556   -0.0090 C.ar    1  UNL1        0.0354
      2 C           2.0368   -0.8259    0.0161 C.ar    1  UNL1        0.0712
      3 C           1.9189    0.6775    0.0250 C.ar    1  UNL1        0.0541
      4 N           0.8251    1.3809    0.0007 N.ar    1  UNL1       -0.2183
      5 C          -0.3411    0.6700   -0.0407 C.ar    1  UNL1        0.2354
      6 N          -0.3181   -0.7190   -0.0301 N.ar    1  UNL1       -0.2885
      7 N          -1.5875    1.1002   -0.1016 N.ar    1  UNL1       -0.2103
      8 C          -2.3894   -0.0246   -0.1528 C.ar    1  UNL1        0.0928
      9 C          -1.6136   -1.1570   -0.0449 C.ar    1  UNL1        0.0387
     10 C          -3.8444    0.0408   -0.2771 C.ar    1  UNL1        0.0219
     11 C          -4.6265   -0.9336   -0.9242 C.ar    1  UNL1        0.0503
     12 C          -6.0102   -0.7717   -1.0209 C.ar    1  UNL1       -0.0410
     13 C          -6.6316    0.3693   -0.5160 C.ar    1  UNL1       -0.0391
     14 C          -5.8869    1.3738    0.0989 C.ar    1  UNL1        0.0345
     15 C          -4.5003    1.1880    0.2355 C.ar    1  UNL1       -0.0298
     16 CL         -3.9964   -2.3418   -1.7117 Cl      1  UNL1       -0.0829
     17 N          -6.4537    2.5916    0.5430 N.am    1  UNL1       -0.2790
     18 C          -7.7759    2.9977    0.3969 C.2     1  UNL1        0.2835
     19 O          -8.6847    2.2940   -0.0287 O.2     1  UNL1       -0.2665
     20 C          -8.0253    4.3783    0.7715 C.ar    1  UNL1        0.1893
     21 C          -9.2039    5.1023    0.7347 C.ar    1  UNL1       -0.0113
     22 C          -8.8897    6.4173    1.1476 C.ar    1  UNL1       -0.0231
     23 C          -7.5433    6.4153    1.4232 C.ar    1  UNL1        0.0928
     24 O          -7.0068    5.1837    1.2059 O.2     1  UNL1       -0.4583
     25 N           3.2814   -1.4068    0.0425 N.am    1  UNL1       -0.2484
     26 C           3.5786   -2.7444    0.0106 C.2     1  UNL1        0.4049
     27 O           2.7772   -3.6614   -0.0766 O.2     1  UNL1       -0.2261
     28 O           4.9249   -2.8932    0.0903 O.3     1  UNL1       -0.4474
     29 C           5.4985   -4.2228    0.0750 C.3     1  UNL1        0.0991
     30 C           5.0589   -5.0691    1.2671 C.3     1  UNL1       -0.0279
     31 C           5.2920   -4.9231   -1.2644 C.3     1  UNL1       -0.0279
     32 H           0.7356   -2.5309   -0.0158 H       1  UNL1        0.0833
     33 H           2.8781    1.2215    0.0565 H       1  UNL1        0.0850
     34 H          -1.8437   -2.2115   -0.0088 H       1  UNL1        0.0835
     35 H          -6.6206   -1.5199   -1.5221 H       1  UNL1        0.0633
     36 H          -7.7052    0.4415   -0.6517 H       1  UNL1        0.0636
     37 H          -3.8986    1.9549    0.7236 H       1  UNL1        0.0643
     38 H          -5.8260    3.2871    0.9329 H       1  UNL1        0.1552
     39 H         -10.1652    4.7139    0.4230 H       1  UNL1        0.0657
     40 H          -9.5624    7.2599    1.2232 H       1  UNL1        0.0649
     41 H          -6.8529    7.1762    1.7605 H       1  UNL1        0.1029
     42 H           4.0991   -0.8124    0.0864 H       1  UNL1        0.1583
     43 H           6.5771   -4.0576    0.1856 H       1  UNL1        0.0729
     44 H           3.9944   -5.3171    1.2319 H       1  UNL1        0.0265
     45 H           5.6162   -6.0110    1.3013 H       1  UNL1        0.0265
     46 H           5.2306   -4.5279    2.2031 H       1  UNL1        0.0265
     47 H           5.6543   -4.2918   -2.0827 H       1  UNL1        0.0265
     48 H           5.8325   -5.8748   -1.2944 H       1  UNL1        0.0265
     49 H           4.2370   -5.1299   -1.4652 H       1  UNL1        0.0265
@<TRIPOS>BOND
     1     1     2   ar
     2     2     3   ar
     3     3     4   ar
     4     4     5   ar
     5     5     6   ar
     6     1     6   ar
     7     7     8   ar
     8     8     9   ar
     9     5     7   ar
    10     6     9   ar
    11    11    12   ar
    12    12    13   ar
    13    13    14   ar
    14    14    15   ar
    15    10    11   ar
    16    10    15   ar
    17     8    10    1
    18    11    16    1
    19    14    17    1
    20    17    18   am
    21    18    19    2
    22    21    22   ar
    23    22    23   ar
    24    23    24   ar
    25    20    21   ar
    26    20    24   ar
    27    18    20    1
    28     2    25    1
    29    25    26   am
    30    26    27    2
    31    26    28    1
    32    28    29    1
    33    29    30    1
    34    29    31    1
    35     1    32    1
    36     3    33    1
    37     9    34    1
    38    12    35    1
    39    13    36    1
    40    15    37    1
    41    17    38    1
    42    21    39    1
    43    22    40    1
    44    23    41    1
    45    25    42    1
    46    29    43    1
    47    30    44    1
    48    30    45    1
    49    30    46    1
    50    31    47    1
    51    31    48    1
    52    31    49    1
@<TRIPOS>MOLECULE
mol_715_akc_nature19339
*****
 49 53 0 0 0
SMALL
GASTEIGER

@<TRIPOS>ATOM
      1 C          -0.9400   -0.0681    1.7742 C.ar    1  UNL1        0.0421
      2 C          -2.0990   -0.2738    1.1256 C.ar    1  UNL1        0.0185
      3 C          -1.9550   -0.6268   -0.3240 C.ar    1  UNL1        0.0406
      4 N          -0.8424   -0.7355   -0.9873 N.ar    1  UNL1       -0.2184
      5 C           0.2957   -0.5001   -0.2667 C.ar    1  UNL1        0.2533
      6 N           0.2606   -0.1809    1.0934 N.ar    1  UNL1       -0.2030
      7 N           1.5456   -0.5211   -0.6628 N.ar    1  UNL1       -0.1892
      8 C           2.2656   -0.2030    0.4653 C.ar    1  UNL1        0.1852
      9 N           1.5160   -0.0228    1.5600 N.ar    1  UNL1       -0.1436
     10 C           3.7219   -0.1040    0.3974 C.ar    1  UNL1        0.0410
     11 C           4.4945    0.7369    1.2098 C.ar    1  UNL1        0.0518
     12 C           5.8714    0.8354    0.9865 C.ar    1  UNL1       -0.0409
     13 C           6.4803    0.1281   -0.0556 C.ar    1  UNL1       -0.0391
     14 C           5.7353   -0.7151   -0.8798 C.ar    1  UNL1        0.0345
     15 C           4.3667   -0.8455   -0.6215 C.ar    1  UNL1       -0.0283
     16 CL          3.8536    1.7458    2.4612 Cl      1  UNL1       -0.0828
     17 N           6.2641   -1.3830   -2.0154 N.am    1  UNL1       -0.2789
     18 C           7.6082   -1.4928   -2.3439 C.2     1  UNL1        0.2854
     19 O           8.5189   -1.1779   -1.5820 O.2     1  UNL1       -0.2664
     20 C           7.8822   -2.0254   -3.6633 C.ar    1  UNL1        0.2125
     21 C           9.0816   -2.3321   -4.2880 C.ar    1  UNL1        0.0890
     22 N           8.8491   -2.7478   -5.5754 N.ar    1  UNL1       -0.2180
     23 C           7.5436   -2.6610   -5.7110 C.ar    1  UNL1        0.1936
     24 O           6.8756   -2.2548   -4.5810 O.2     1  UNL1       -0.4351
     25 C          -3.3999   -0.1539    1.7664 C.ar    1  UNL1       -0.0150
     26 C          -4.0506    1.0855    1.8011 C.ar    1  UNL1       -0.0539
     27 C          -5.3014    1.2042    2.4086 C.ar    1  UNL1       -0.0612
     28 C          -5.9051    0.0869    2.9853 C.ar    1  UNL1       -0.0617
     29 C          -5.2562   -1.1468    2.9643 C.ar    1  UNL1       -0.0612
     30 C          -4.0046   -1.2685    2.3578 C.ar    1  UNL1       -0.0539
     31 C           6.7500   -2.8963   -6.9353 C.3     1  UNL1        0.0122
     32 C          10.4724   -2.2312   -3.7927 C.3     1  UNL1       -0.0185
     33 H          -0.8710    0.1936    2.8222 H       1  UNL1        0.0838
     34 H          -2.9016   -0.8099   -0.8629 H       1  UNL1        0.0837
     35 H           6.4813    1.4988    1.5973 H       1  UNL1        0.0633
     36 H           7.5418    0.2996   -0.2170 H       1  UNL1        0.0636
     37 H           3.7695   -1.5268   -1.2266 H       1  UNL1        0.0644
     38 H           5.6069   -1.8031   -2.6562 H       1  UNL1        0.1552
     39 H          -3.5912    1.9667    1.3580 H       1  UNL1        0.0624
     40 H          -5.8049    2.1670    2.4322 H       1  UNL1        0.0618
     41 H          -6.8814    0.1800    3.4545 H       1  UNL1        0.0618
     42 H          -5.7261   -2.0145    3.4212 H       1  UNL1        0.0618
     43 H          -3.5097   -2.2376    2.3536 H       1  UNL1        0.0624
     44 H           6.2032   -3.8397   -6.8716 H       1  UNL1        0.0324
     45 H           6.0423   -2.0814   -7.1021 H       1  UNL1        0.0324
     46 H           7.4131   -2.9466   -7.8052 H       1  UNL1        0.0324
     47 H          10.9767   -3.1974   -3.8864 H       1  UNL1        0.0294
     48 H          11.0239   -1.4971   -4.3898 H       1  UNL1        0.0294
     49 H          10.5301   -1.9240   -2.7470 H       1  UNL1        0.0294
@<TRIPOS>BOND
     1     1     2   ar
     2     2     3   ar
     3     3     4   ar
     4     4     5   ar
     5     5     6   ar
     6     1     6   ar
     7     7     8   ar
     8     8     9   ar
     9     5     7   ar
    10     6     9   ar
    11    11    12   ar
    12    12    13   ar
    13    13    14   ar
    14    14    15   ar
    15    10    11   ar
    16    10    15   ar
    17     8    10    1
    18    11    16    1
    19    14    17    1
    20    17    18   am
    21    18    19    2
    22    21    22   ar
    23    22    23   ar
    24    23    24   ar
    25    20    21   ar
    26    20    24   ar
    27    18    20    1
    28    26    27   ar
    29    27    28   ar
    30    28    29   ar
    31    29    30   ar
    32    25    26   ar
    33    25    30   ar
    34     2    25    1
    35    23    31    1
    36    21    32    1
    37     1    33    1
    38     3    34    1
    39    12    35    1
    40    13    36    1
    41    15    37    1
    42    17    38    1
    43    26    39    1
    44    27    40    1
    45    28    41    1
    46    29    42    1
    47    30    43    1
    48    31    44    1
    49    31    45    1
    50    31    46    1
    51    32    47    1
    52    32    48    1
    53    32    49    1
@<TRIPOS>MOLECULE
mol_716_akc_nature19339
*****
 48 52 0 0 0
SMALL
GASTEIGER

@<TRIPOS>ATOM
      1 C          -0.9037    0.6018    1.6390 C.ar    1  UNL1        0.0436
      2 C          -2.0914    0.1102    1.2459 C.ar    1  UNL1        0.0367
      3 C          -1.9894   -0.9242    0.1588 C.ar    1  UNL1        0.0421
      4 N          -0.8984   -1.3783   -0.3887 N.ar    1  UNL1       -0.2183
      5 C           0.2665   -0.8396    0.0758 C.ar    1  UNL1        0.2533
      6 N           0.2702    0.1349    1.0724 N.ar    1  UNL1       -0.2029
      7 N           1.5082   -1.0830   -0.2795 N.ar    1  UNL1       -0.1891
      8 C           2.2575   -0.2438    0.5132 C.ar    1  UNL1        0.1866
      9 N           1.5317    0.5041    1.3526 N.ar    1  UNL1       -0.1435
     10 C           3.7067   -0.1539    0.3782 C.ar    1  UNL1        0.0578
     11 C           4.4692    0.6856    1.1955 C.ar    1  UNL1        0.1342
     12 C           5.8392    0.8080    1.0068 C.ar    1  UNL1       -0.0240
     13 C           6.4651    0.1153   -0.0300 C.ar    1  UNL1       -0.0377
     14 C           5.7325   -0.7148   -0.8848 C.ar    1  UNL1        0.0346
     15 C           4.3608   -0.8780   -0.6418 C.ar    1  UNL1       -0.0269
     16 F           3.9164    1.4136    2.1774 F       1  UNL1       -0.2047
     17 N           6.2818   -1.3463   -2.0283 N.am    1  UNL1       -0.2789
     18 C           7.5671   -1.1792   -2.5264 C.2     1  UNL1        0.2854
     19 O           8.4523   -0.5610   -1.9353 O.2     1  UNL1       -0.2664
     20 C           7.8129   -1.7587   -3.8266 C.ar    1  UNL1        0.2125
     21 C           8.9566   -1.7856   -4.6067 C.ar    1  UNL1        0.0890
     22 N           8.6909   -2.4068   -5.8029 N.ar    1  UNL1       -0.2180
     23 C           7.4144   -2.7116   -5.7306 C.ar    1  UNL1        0.1936
     24 O           6.8093   -2.3682   -4.5471 O.2     1  UNL1       -0.4351
     25 C          -3.3863    0.5516    1.7764 C.ar    1  UNL1        0.0739
     26 C          -3.5311    1.0431    3.0735 C.ar    1  UNL1       -0.0356
     27 C          -4.7882    1.4581    3.5059 C.ar    1  UNL1       -0.0583
     28 C          -5.8676    1.3677    2.6390 C.ar    1  UNL1       -0.0436
     29 C          -5.6441    0.8566    1.3724 C.ar    1  UNL1        0.0283
     30 N          -4.4349    0.4451    0.9280 N.ar    1  UNL1       -0.2549
     31 C           6.5751   -3.3260   -6.7786 C.3     1  UNL1        0.0122
     32 C          10.3051   -1.2330   -4.3494 C.3     1  UNL1       -0.0185
     33 H          -0.7727    1.3727    2.3862 H       1  UNL1        0.0838
     34 H          -2.9489   -1.3411   -0.1925 H       1  UNL1        0.0838
     35 H           6.4128    1.4673    1.6516 H       1  UNL1        0.0647
     36 H           7.5325    0.2710   -0.1440 H       1  UNL1        0.0637
     37 H           3.7718   -1.5412   -1.2738 H       1  UNL1        0.0644
     38 H           5.6545   -1.8938   -2.6069 H       1  UNL1        0.1552
     39 H          -2.6909    1.1032    3.7573 H       1  UNL1        0.0639
     40 H          -4.9207    1.8468    4.5121 H       1  UNL1        0.0619
     41 H          -6.8591    1.6841    2.9433 H       1  UNL1        0.0633
     42 H          -6.4564    0.7630    0.6573 H       1  UNL1        0.0830
     43 H           6.3412   -4.3646   -6.5320 H       1  UNL1        0.0324
     44 H           5.6429   -2.7693   -6.9063 H       1  UNL1        0.0324
     45 H           7.1058   -3.3152   -7.7374 H       1  UNL1        0.0324
     46 H          11.0643   -2.0078   -4.4916 H       1  UNL1        0.0294
     47 H          10.5111   -0.4174   -5.0499 H       1  UNL1        0.0294
     48 H          10.4174   -0.8410   -3.3365 H       1  UNL1        0.0294
@<TRIPOS>BOND
     1     1     2   ar
     2     2     3   ar
     3     3     4   ar
     4     4     5   ar
     5     5     6   ar
     6     1     6   ar
     7     7     8   ar
     8     8     9   ar
     9     5     7   ar
    10     6     9   ar
    11    11    12   ar
    12    12    13   ar
    13    13    14   ar
    14    14    15   ar
    15    10    11   ar
    16    10    15   ar
    17     8    10    1
    18    11    16    1
    19    14    17    1
    20    17    18   am
    21    18    19    2
    22    21    22   ar
    23    22    23   ar
    24    23    24   ar
    25    20    21   ar
    26    20    24   ar
    27    18    20    1
    28    26    27   ar
    29    27    28   ar
    30    28    29   ar
    31    29    30   ar
    32    25    26   ar
    33    25    30   ar
    34     2    25    1
    35    23    31    1
    36    21    32    1
    37     1    33    1
    38     3    34    1
    39    12    35    1
    40    13    36    1
    41    15    37    1
    42    17    38    1
    43    26    39    1
    44    27    40    1
    45    28    41    1
    46    29    42    1
    47    31    43    1
    48    31    44    1
    49    31    45    1
    50    32    46    1
    51    32    47    1
    52    32    48    1
@<TRIPOS>MOLECULE
mol_717_akc_acsjmedchem0c00499
*****
 51 55 0 0 0
SMALL
GASTEIGER

@<TRIPOS>ATOM
      1 C          -0.9352    0.6108    1.6180 C.ar    1  UNL1        0.0436
      2 C          -2.1011    0.1154    1.1756 C.ar    1  UNL1        0.0370
      3 C          -1.9868   -0.8802    0.0668 C.ar    1  UNL1        0.0421
      4 N          -0.8873   -1.3196   -0.4667 N.ar    1  UNL1       -0.2183
      5 C           0.2666   -0.7869    0.0381 C.ar    1  UNL1        0.2533
      6 N           0.2526    0.1682    1.0585 N.ar    1  UNL1       -0.2029
      7 N           1.5121   -1.0322   -0.2944 N.ar    1  UNL1       -0.1891
      8 C           2.2496   -0.2159    0.5309 C.ar    1  UNL1        0.1866
      9 N           1.5131    0.5225    1.3703 N.ar    1  UNL1       -0.1435
     10 C           3.7018   -0.1455    0.4156 C.ar    1  UNL1        0.0578
     11 C           4.4616    0.7120    1.2168 C.ar    1  UNL1        0.1342
     12 C           5.8319    0.8247    1.0249 C.ar    1  UNL1       -0.0240
     13 C           6.4506    0.1230   -0.0099 C.ar    1  UNL1       -0.0377
     14 C           5.7196   -0.7191   -0.8526 C.ar    1  UNL1        0.0346
     15 C           4.3569   -0.9011   -0.5829 C.ar    1  UNL1       -0.0269
     16 F           3.9072    1.4642    2.1796 F       1  UNL1       -0.2047
     17 N           6.2586   -1.3449   -2.0084 N.am    1  UNL1       -0.2789
     18 C           7.5313   -1.1231   -2.5349 C.2     1  UNL1        0.2854
     19 O           8.3834   -0.4507   -1.9745 O.2     1  UNL1       -0.2664
     20 C           7.7994   -1.7014   -3.8361 C.ar    1  UNL1        0.2125
     21 C           8.9573   -1.6970   -4.6013 C.ar    1  UNL1        0.0890
     22 N           8.7234   -2.3229   -5.8011 N.ar    1  UNL1       -0.2180
     23 C           7.4530   -2.6529   -5.7499 C.ar    1  UNL1        0.1936
     24 O           6.8239   -2.3327   -4.5711 O.2     1  UNL1       -0.4351
     25 C          -3.3965    0.5224    1.7036 C.ar    1  UNL1        0.0768
     26 C          -3.9936   -0.1080    2.8007 C.ar    1  UNL1       -0.0244
     27 C          -5.2539    0.3520    3.1979 C.ar    1  UNL1       -0.0554
     28 C          -5.8520    1.4116    2.5237 C.ar    1  UNL1       -0.0433
     29 C          -5.1713    1.9804    1.4637 C.ar    1  UNL1        0.0283
     30 N          -3.9648    1.5543    1.0359 N.ar    1  UNL1       -0.2546
     31 C           6.6431   -3.2552   -6.8278 C.3     1  UNL1        0.0122
     32 C          10.2872   -1.1021   -4.3368 C.3     1  UNL1       -0.0185
     33 C          -3.3417   -1.2439    3.5331 C.3     1  UNL1       -0.0377
     34 H          -0.8479    1.3537    2.4001 H       1  UNL1        0.0838
     35 H          -2.9447   -1.2738   -0.3150 H       1  UNL1        0.0838
     36 H           6.4090    1.4874    1.6632 H       1  UNL1        0.0647
     37 H           7.5151    0.2872   -0.1321 H       1  UNL1        0.0637
     38 H           3.7707   -1.5970   -1.1803 H       1  UNL1        0.0644
     39 H           5.6391   -1.9056   -2.5758 H       1  UNL1        0.1552
     40 H          -5.7748   -0.1087    4.0342 H       1  UNL1        0.0621
     41 H          -6.8256    1.7857    2.8206 H       1  UNL1        0.0633
     42 H          -5.5898    2.8177    0.9121 H       1  UNL1        0.0830
     43 H           6.4193   -4.3026   -6.6119 H       1  UNL1        0.0324
     44 H           5.7072   -2.7069   -6.9622 H       1  UNL1        0.0324
     45 H           7.1927   -3.2139   -7.7756 H       1  UNL1        0.0324
     46 H          11.0717   -1.8513   -4.4835 H       1  UNL1        0.0294
     47 H          10.4681   -0.2790   -5.0357 H       1  UNL1        0.0294
     48 H          10.3877   -0.7109   -3.3232 H       1  UNL1        0.0294
     49 H          -3.2448   -2.1156    2.8784 H       1  UNL1        0.0278
     50 H          -2.3524   -0.9496    3.8982 H       1  UNL1        0.0278
     51 H          -3.9302   -1.5458    4.4062 H       1  UNL1        0.0278
@<TRIPOS>BOND
     1     1     2   ar
     2     2     3   ar
     3     3     4   ar
     4     4     5   ar
     5     5     6   ar
     6     1     6   ar
     7     7     8   ar
     8     8     9   ar
     9     5     7   ar
    10     6     9   ar
    11    11    12   ar
    12    12    13   ar
    13    13    14   ar
    14    14    15   ar
    15    10    11   ar
    16    10    15   ar
    17     8    10    1
    18    11    16    1
    19    14    17    1
    20    17    18   am
    21    18    19    2
    22    21    22   ar
    23    22    23   ar
    24    23    24   ar
    25    20    21   ar
    26    20    24   ar
    27    18    20    1
    28    26    27   ar
    29    27    28   ar
    30    28    29   ar
    31    29    30   ar
    32    25    26   ar
    33    25    30   ar
    34     2    25    1
    35    23    31    1
    36    21    32    1
    37    26    33    1
    38     1    34    1
    39     3    35    1
    40    12    36    1
    41    13    37    1
    42    15    38    1
    43    17    39    1
    44    27    40    1
    45    28    41    1
    46    29    42    1
    47    31    43    1
    48    31    44    1
    49    31    45    1
    50    32    46    1
    51    32    47    1
    52    32    48    1
    53    33    49    1
    54    33    50    1
    55    33    51    1
@<TRIPOS>MOLECULE
mol_718_akc_pnas1820175116
*****
 53 57 0 0 0
SMALL
GASTEIGER

@<TRIPOS>ATOM
      1 C          -3.2789    1.5892    1.5535 C.3     1  UNL1        0.0634
      2 O          -2.0992    1.3931    2.3582 O.3     1  UNL1       -0.3767
      3 C          -0.9853    0.9772    1.5429 C.3     1  UNL1        0.0634
      4 C          -1.2980   -0.3237    0.7822 C.3     1  UNL1        0.0370
      5 N          -2.4946   -0.0823   -0.0358 N.pl3   1  UNL1       -0.3106
      6 C          -3.6552    0.3126    0.7760 C.3     1  UNL1        0.0370
      7 C          -2.5957   -0.5995   -1.2952 C.ar    1  UNL1        0.1269
      8 C          -2.0600   -1.7329   -1.8760 C.ar    1  UNL1        0.0700
      9 N          -2.2755   -1.7701   -3.2295 N.ar    1  UNL1       -0.2168
     10 C          -2.9294   -0.6627   -3.5228 C.ar    1  UNL1        0.2367
     11 N          -3.1760    0.0729   -2.3612 N.ar    1  UNL1       -0.2719
     12 C          -3.8357    1.2930   -2.4037 C.ar    1  UNL1        0.0164
     13 C          -4.2617    1.7755   -3.5713 C.ar    1  UNL1       -0.0189
     14 C          -3.9865    0.9164   -4.7794 C.ar    1  UNL1        0.0790
     15 N          -3.3474   -0.2191   -4.7493 N.ar    1  UNL1       -0.2117
     16 C          -4.5150    1.4720   -6.0566 C.ar    1  UNL1        0.0374
     17 C          -5.7367    2.1526   -6.0298 C.ar    1  UNL1       -0.0285
     18 C          -6.1955    2.8942   -7.1176 C.ar    1  UNL1        0.0356
     19 C          -5.4847    2.8085   -8.3186 C.ar    1  UNL1       -0.0377
     20 C          -4.3074    2.0511   -8.3914 C.ar    1  UNL1       -0.0240
     21 C          -3.8100    1.4052   -7.2572 C.ar    1  UNL1        0.1327
     22 N          -7.3019    3.7721   -7.0316 N.am    1  UNL1       -0.2693
     23 F          -2.6303    0.7821   -7.3442 F       1  UNL1       -0.2048
     24 C          -8.0126    4.0829   -5.8910 C.2     1  UNL1        0.3064
     25 O          -7.8587    3.5409   -4.7962 O.2     1  UNL1       -0.2523
     26 N          -8.9291    5.1048   -6.0142 N.am    1  UNL1       -0.2854
     27 C          -9.2163    5.9807   -7.1330 C.3     1  UNL1        0.0162
     28 C          -9.7762    5.4404   -4.8812 C.3     1  UNL1        0.0162
     29 C         -10.3755    6.8060   -5.1962 C.3     1  UNL1       -0.0357
     30 C          -9.6580    7.2700   -6.4598 C.3     1  UNL1       -0.0357
     31 H          -3.0996    2.4260    0.8672 H       1  UNL1        0.0575
     32 H          -4.0936    1.8762    2.2251 H       1  UNL1        0.0575
     33 H          -0.1243    0.8309    2.2014 H       1  UNL1        0.0575
     34 H          -0.7403    1.7856    0.8422 H       1  UNL1        0.0575
     35 H          -1.5001   -1.1355    1.4916 H       1  UNL1        0.0487
     36 H          -0.4328   -0.6038    0.1716 H       1  UNL1        0.0487
     37 H          -3.8801   -0.4923    1.4872 H       1  UNL1        0.0487
     38 H          -4.5587    0.4792    0.1821 H       1  UNL1        0.0487
     39 H          -1.5138   -2.5252   -1.3825 H       1  UNL1        0.0865
     40 H          -3.9762    1.8309   -1.4791 H       1  UNL1        0.0815
     41 H          -4.7707    2.7262   -3.6463 H       1  UNL1        0.0654
     42 H          -6.3225    2.1026   -5.1161 H       1  UNL1        0.0643
     43 H          -5.8187    3.3402   -9.2062 H       1  UNL1        0.0637
     44 H          -3.7511    1.9812   -9.3247 H       1  UNL1        0.0647
     45 H          -7.5476    4.2708   -7.8721 H       1  UNL1        0.1564
     46 H         -10.0371    5.5300   -7.7014 H       1  UNL1        0.0465
     47 H          -8.3556    6.1298   -7.7890 H       1  UNL1        0.0465
     48 H          -9.2069    5.4396   -3.9475 H       1  UNL1        0.0465
     49 H         -10.5617    4.6788   -4.8102 H       1  UNL1        0.0465
     50 H         -10.2297    7.5081   -4.3685 H       1  UNL1        0.0281
     51 H         -11.4538    6.7191   -5.3680 H       1  UNL1        0.0281
     52 H          -8.7778    7.8613   -6.1790 H       1  UNL1        0.0281
     53 H         -10.2913    7.8893   -7.1004 H       1  UNL1        0.0281
@<TRIPOS>BOND
     1     1     2    1
     2     2     3    1
     3     3     4    1
     4     4     5    1
     5     5     6    1
     6     1     6    1
     7     8     9   ar
     8     9    10   ar
     9     7     8   ar
    10     7    11   ar
    11     5     7    1
    12    12    13   ar
    13    13    14   ar
    14    14    15   ar
    15    10    15   ar
    16    11    12   ar
    17    10    11   ar
    18    17    18   ar
    19    18    19   ar
    20    19    20   ar
    21    20    21   ar
    22    16    17   ar
    23    16    21   ar
    24    14    16    1
    25    18    22    1
    26    21    23    1
    27    22    24   am
    28    24    25    2
    29    24    26   am
    30    28    29    1
    31    29    30    1
    32    27    30    1
    33    27    26    1
    34    26    28    1
    35     1    31    1
    36     1    32    1
    37     3    33    1
    38     3    34    1
    39     4    35    1
    40     4    36    1
    41     6    37    1
    42     6    38    1
    43     8    39    1
    44    12    40    1
    45    13    41    1
    46    17    42    1
    47    19    43    1
    48    20    44    1
    49    22    45    1
    50    27    46    1
    51    27    47    1
    52    28    48    1
    53    28    49    1
    54    29    50    1
    55    29    51    1
    56    30    52    1
    57    30    53    1
@<TRIPOS>MOLECULE
mol_719_akc_s41598_018_22063_9
*****
 48 51 0 0 0
SMALL
GASTEIGER

@<TRIPOS>ATOM
      1 C          -0.5427   -0.8199    0.5798 C.ar    1  UNL1       -0.0424
      2 C          -0.8421   -0.4261   -0.7516 C.ar    1  UNL1       -0.0424
      3 C           0.1269    0.4732   -1.1468 C.ar    1  UNL1        0.0288
      4 N           0.9714    0.6492   -0.0840 N.ar    1  UNL1       -0.2260
      5 C           0.5963   -0.1437    0.9686 C.ar    1  UNL1        0.0288
      6 S           2.3025    1.7031   -0.0654 S.O2    1  UNL1        0.0837
      7 O           2.3542    2.3328   -1.3715 O.2     1  UNL1       -0.1476
      8 O           2.1776    2.4544    1.1661 O.2     1  UNL1       -0.1476
      9 C           3.7263    0.6493    0.0565 C.ar    1  UNL1        0.1112
     10 C           4.5582    0.7585    1.1677 C.ar    1  UNL1       -0.0346
     11 C           4.0551   -0.2113   -0.9963 C.ar    1  UNL1       -0.0313
     12 C           5.2354   -0.9791   -0.9466 C.ar    1  UNL1       -0.0371
     13 C           6.0762   -0.8696    0.1791 C.ar    1  UNL1       -0.0389
     14 C           5.7204   -0.0048    1.2292 C.ar    1  UNL1       -0.0563
     15 C           5.5582   -1.9008   -2.1014 C.3     1  UNL1        0.0130
     16 C           6.8640   -1.5541   -2.8186 C.3     1  UNL1       -0.0275
     17 C           7.3624   -1.6478    0.3067 C.3     1  UNL1        0.0130
     18 C           8.3733   -1.3004   -0.7855 C.3     1  UNL1       -0.0275
     19 N           8.1140   -2.0186   -2.0925 N.4     1  UNL1        0.2390
     20 C           8.3069   -3.5223   -1.9962 C.3     1  UNL1       -0.0045
     21 C           8.3838   -4.2218   -3.3162 C.ar    1  UNL1        0.0151
     22 C           7.4566   -5.2068   -3.6430 C.ar    1  UNL1        0.0358
     23 N           7.4468   -5.8685   -4.8157 N.ar    1  UNL1       -0.2628
     24 C           8.4160   -5.5675   -5.7051 C.ar    1  UNL1        0.0276
     25 C           9.3964   -4.6198   -5.4702 C.ar    1  UNL1       -0.0432
     26 C           9.3818   -3.9387   -4.2558 C.ar    1  UNL1       -0.0507
     27 H          -1.1146   -1.5058    1.1940 H       1  UNL1        0.0633
     28 H          -1.6867   -0.7495   -1.3488 H       1  UNL1        0.0633
     29 H           0.2518    1.0250   -2.0705 H       1  UNL1        0.0828
     30 H           1.1371   -0.1392    1.9062 H       1  UNL1        0.0828
     31 H           4.3220    1.4411    1.9829 H       1  UNL1        0.0637
     32 H           3.3992   -0.2633   -1.8661 H       1  UNL1        0.0640
     33 H           6.3543    0.0958    2.1106 H       1  UNL1        0.0621
     34 H           4.7541   -1.8288   -2.8459 H       1  UNL1        0.0365
     35 H           5.5392   -2.9389   -1.7544 H       1  UNL1        0.0365
     36 H           6.9714   -0.4727   -2.9668 H       1  UNL1        0.0818
     37 H           6.8885   -2.0208   -3.8088 H       1  UNL1        0.0818
     38 H           7.8316   -1.4112    1.2704 H       1  UNL1        0.0365
     39 H           7.1353   -2.7173    0.3534 H       1  UNL1        0.0365
     40 H           9.3820   -1.5967   -0.4759 H       1  UNL1        0.0818
     41 H           8.3955   -0.2268   -1.0074 H       1  UNL1        0.0818
     42 H           8.8773   -1.7045   -2.7038 H       1  UNL1        0.2037
     43 H           9.2441   -3.6897   -1.4520 H       1  UNL1        0.0868
     44 H           7.4938   -3.9249   -1.3859 H       1  UNL1        0.0868
     45 H           6.6655   -5.5097   -2.9599 H       1  UNL1        0.0834
     46 H           8.3853   -6.1294   -6.6352 H       1  UNL1        0.0829
     47 H          10.1595   -4.4253   -6.2177 H       1  UNL1        0.0633
     48 H          10.1631   -3.2092   -4.0591 H       1  UNL1        0.0623
@<TRIPOS>UNITY_ATOM_ATTR
19 1
charge 1
@<TRIPOS>BOND
     1     1     2   ar
     2     2     3   ar
     3     3     4   ar
     4     4     5   ar
     5     1     5   ar
     6     4     6    1
     7     6     7    2
     8     6     8    2
     9     6     9    1
    10    11    12   ar
    11    12    13   ar
    12    13    14   ar
    13    10    14   ar
    14    10     9   ar
    15     9    11   ar
    16    12    15    1
    17    15    16    1
    18    13    17    1
    19    17    18    1
    20    16    19    1
    21    18    19    1
    22    19    20    1
    23    20    21    1
    24    22    23   ar
    25    23    24   ar
    26    24    25   ar
    27    25    26   ar
    28    21    22   ar
    29    21    26   ar
    30     1    27    1
    31     2    28    1
    32     3    29    1
    33     5    30    1
    34    10    31    1
    35    11    32    1
    36    14    33    1
    37    15    34    1
    38    15    35    1
    39    16    36    1
    40    16    37    1
    41    17    38    1
    42    17    39    1
    43    18    40    1
    44    18    41    1
    45    19    42    1
    46    20    43    1
    47    20    44    1
    48    22    45    1
    49    24    46    1
    50    25    47    1
    51    26    48    1
@<TRIPOS>MOLECULE
mol_71_akc_s11030_018_9830_7
>70.sdf
 18 19 0 0 0
SMALL
GASTEIGER

@<TRIPOS>ATOM
      1 H           1.0380   -0.1385    0.0403 H       1  UNL1        0.1673
      2 N           2.0496   -0.0996    0.0409 N.ar    1  UNL1       -0.3346
      3 C           2.8198    1.0358    0.0420 C.ar    1  UNL1        0.0679
      4 C           4.1265    0.5656    0.0416 C.ar    1  UNL1        0.0909
      5 C           5.1905    1.4767    0.0414 C.ar    1  UNL1       -0.0145
      6 C           4.8999    2.8480    0.0412 C.ar    1  UNL1        0.0614
      7 CL          6.2433    3.9388    0.0385 Cl      1  UNL1       -0.0820
      8 C           3.5715    3.2999    0.0424 C.ar    1  UNL1        0.0613
      9 CL          3.1755    4.9850    0.0437 Cl      1  UNL1       -0.0820
     10 C           2.4975    2.3951    0.0425 C.ar    1  UNL1       -0.0165
     11 N           4.1517   -0.8040    0.0405 N.ar    1  UNL1       -0.2241
     12 C           2.8865   -1.1934    0.0385 C.ar    1  UNL1        0.2131
     13 C           2.3340   -2.5810    0.0317 C.3     1  UNL1        0.4504
     14 F           0.9714   -2.5627    0.0439 F       1  UNL1       -0.1632
     15 F           2.6997   -3.2792   -1.0720 F       1  UNL1       -0.1632
     16 F           2.7194   -3.2994    1.1154 F       1  UNL1       -0.1632
     17 H           6.2117    1.1113    0.0405 H       1  UNL1        0.0654
     18 H           1.4681    2.7388    0.0423 H       1  UNL1        0.0654
@<TRIPOS>BOND
     1     2     1    1
     2     3     2   ar
     3     4     3   ar
     4     5     4   ar
     5     5    17    1
     6     6     5   ar
     7     7     6    1
     8     8     6   ar
     9     9     8    1
    10    10     8   ar
    11    10     3   ar
    12    10    18    1
    13    11     4   ar
    14    12    11   ar
    15    12     2   ar
    16    13    12    1
    17    14    13    1
    18    15    13    1
    19    16    13    1
@<TRIPOS>MOLECULE
mol_720_akc_s41598_018_22063_9
*****
 55 59 0 0 0
SMALL
GASTEIGER

@<TRIPOS>ATOM
      1 C          -2.8632   -0.5697    3.3086 C.ar    1  UNL1        0.0368
      2 C          -2.0439    0.2453    2.4763 C.ar    1  UNL1       -0.0318
      3 C          -1.7680   -0.4686    1.3317 C.ar    1  UNL1        0.0302
      4 N          -2.4259   -1.6730    1.4298 N.ar    1  UNL1       -0.2182
      5 C          -3.0703   -1.7924    2.6468 C.ar    1  UNL1        0.0750
      6 S          -2.3049   -2.8683    0.2181 S.O2    1  UNL1        0.0842
      7 O          -3.2784   -3.9018    0.5020 O.2     1  UNL1       -0.1476
      8 O          -2.2920   -2.1415   -1.0374 O.2     1  UNL1       -0.1476
      9 C          -0.6969   -3.5893    0.4523 C.ar    1  UNL1        0.1113
     10 C           0.2691   -3.4377   -0.5401 C.ar    1  UNL1       -0.0346
     11 C          -0.4302   -4.3623    1.5859 C.ar    1  UNL1       -0.0313
     12 C           0.8370   -4.9510    1.7539 C.ar    1  UNL1       -0.0371
     13 C           1.8583   -4.6817    0.8244 C.ar    1  UNL1       -0.0389
     14 C           1.5465   -3.9559   -0.3382 C.ar    1  UNL1       -0.0563
     15 C           1.0675   -5.9173    2.8858 C.3     1  UNL1        0.0130
     16 C           1.3258   -7.3461    2.3719 C.3     1  UNL1       -0.0275
     17 C           3.2983   -5.0853    1.0520 C.3     1  UNL1        0.0130
     18 C           3.6156   -6.4447    1.6874 C.3     1  UNL1       -0.0275
     19 N           2.5630   -7.5081    1.4909 N.4     1  UNL1        0.2390
     20 C           2.2419   -7.8580    0.0416 C.3     1  UNL1       -0.0059
     21 C           3.4688   -8.1492   -0.7900 C.ar    1  UNL1       -0.0027
     22 C           4.1986   -9.3360   -0.6003 C.ar    1  UNL1       -0.0508
     23 C           5.3828   -9.5571   -1.3090 C.ar    1  UNL1       -0.0260
     24 C           5.8402   -8.5993   -2.2049 C.ar    1  UNL1        0.1234
     25 C           5.1239   -7.4310   -2.4248 C.ar    1  UNL1       -0.0260
     26 C           3.9338   -7.2101   -1.7280 C.ar    1  UNL1       -0.0508
     27 C          -3.4545   -0.3689    4.5709 C.ar    1  UNL1        0.1326
     28 C          -4.2290   -1.3701    5.1577 C.ar    1  UNL1       -0.0257
     29 C          -4.4150   -2.5771    4.4975 C.ar    1  UNL1       -0.0570
     30 C          -3.8432   -2.8077    3.2401 C.ar    1  UNL1       -0.0357
     31 F          -3.2865    0.7894    5.2204 F       1  UNL1       -0.2048
     32 F           6.9878   -8.8036   -2.8619 F       1  UNL1       -0.2055
     33 H          -1.7074    1.2505    2.6987 H       1  UNL1        0.0640
     34 H          -1.1971   -0.2032    0.4532 H       1  UNL1        0.0828
     35 H           0.0476   -2.9030   -1.4629 H       1  UNL1        0.0637
     36 H          -1.2148   -4.5223    2.3253 H       1  UNL1        0.0640
     37 H           2.3002   -3.7808   -1.1059 H       1  UNL1        0.0621
     38 H           1.8803   -5.5565    3.5268 H       1  UNL1        0.0365
     39 H           0.1847   -5.9478    3.5371 H       1  UNL1        0.0365
     40 H           1.4835   -8.0143    3.2258 H       1  UNL1        0.0818
     41 H           0.4655   -7.7215    1.8059 H       1  UNL1        0.0818
     42 H           3.8411   -5.0246    0.1017 H       1  UNL1        0.0365
     43 H           3.7530   -4.3086    1.6820 H       1  UNL1        0.0365
     44 H           3.7688   -6.3537    2.7688 H       1  UNL1        0.0818
     45 H           4.5619   -6.8352    1.2950 H       1  UNL1        0.0818
     46 H           3.0125   -8.3649    1.8349 H       1  UNL1        0.2037
     47 H           1.6086   -8.7534    0.0691 H       1  UNL1        0.0867
     48 H           1.6450   -7.0491   -0.3878 H       1  UNL1        0.0867
     49 H           3.8589  -10.1052    0.0903 H       1  UNL1        0.0623
     50 H           5.9562  -10.4703   -1.1712 H       1  UNL1        0.0646
     51 H           5.4993   -6.7022   -3.1386 H       1  UNL1        0.0646
     52 H           3.3844   -6.2912   -1.9253 H       1  UNL1        0.0623
     53 H          -4.6890   -1.1864    6.1233 H       1  UNL1        0.0646
     54 H          -5.0348   -3.3475    4.9556 H       1  UNL1        0.0619
     55 H          -4.0410   -3.7545    2.7396 H       1  UNL1        0.0639
@<TRIPOS>UNITY_ATOM_ATTR
19 1
charge 1
@<TRIPOS>BOND
     1     1     2   ar
     2     2     3   ar
     3     3     4   ar
     4     4     5   ar
     5     4     6    1
     6     6     7    2
     7     6     8    2
     8     6     9    1
     9    11    12   ar
    10    12    13   ar
    11    13    14   ar
    12    10    14   ar
    13    10     9   ar
    14     9    11   ar
    15    12    15    1
    16    15    16    1
    17    13    17    1
    18    17    18    1
    19    16    19    1
    20    18    19    1
    21    20    21    1
    22    22    23   ar
    23    23    24   ar
    24    24    25   ar
    25    25    26   ar
    26    21    22   ar
    27    21    26   ar
    28    27    28   ar
    29    28    29   ar
    30    29    30   ar
    31     1    27   ar
    32     5    30   ar
    33     5     1   ar
    34    27    31    1
    35    24    32    1
    36     2    33    1
    37     3    34    1
    38    10    35    1
    39    11    36    1
    40    14    37    1
    41    15    38    1
    42    15    39    1
    43    16    40    1
    44    16    41    1
    45    17    42    1
    46    17    43    1
    47    18    44    1
    48    18    45    1
    49    20    47    1
    50    20    48    1
    51    22    49    1
    52    23    50    1
    53    25    51    1
    54    26    52    1
    55    28    53    1
    56    29    54    1
    57    30    55    1
    58    19    46    1
    59    19    20    1
@<TRIPOS>MOLECULE
mol_721_akc_s11030_022_10548_9
*****
 56 59 0 0 0
SMALL
GASTEIGER

@<TRIPOS>ATOM
      1 C           2.9295   -4.6500    3.1600 C.ar    1  UNL1        0.2754
      2 C           3.2915   -3.2037    2.9123 C.ar    1  UNL1        0.1227
      3 N           2.8087   -2.5316    1.9108 N.ar    1  UNL1       -0.1666
      4 N           1.9276   -3.1783    1.0616 N.ar    1  UNL1       -0.2099
      5 C           1.5274   -4.5004    1.2063 C.ar    1  UNL1        0.3458
      6 N           2.0948   -5.1930    2.2336 N.ar    1  UNL1       -0.2723
      7 C           1.3784   -2.3863   -0.0366 C.3     1  UNL1        0.0717
      8 C           2.2402   -2.4432   -1.2759 C.ar    1  UNL1       -0.0253
      9 C           3.2803   -1.5220   -1.4557 C.ar    1  UNL1       -0.0446
     10 C           2.0395   -3.4290   -2.2474 C.ar    1  UNL1       -0.0533
     11 C           2.8458   -3.4785   -3.3872 C.ar    1  UNL1       -0.0184
     12 C           3.8557   -2.5317   -3.5733 C.ar    1  UNL1        0.1403
     13 C           4.1032   -1.5472   -2.6007 C.ar    1  UNL1        0.0607
     14 C           5.2241   -0.5425   -2.6863 C.3     1  UNL1        0.2559
     15 O           6.4837   -1.1962   -2.6575 O.2     1  UNL1       -0.4419
     16 N           5.2531    0.2930   -3.8903 N.3     1  UNL1       -0.0715
     17 N           6.5543    0.4117   -4.2812 N.2     1  UNL1       -0.0979
     18 C           7.1818   -0.4897   -3.5868 C.2     1  UNL1        0.2449
     19 C           8.6111   -0.8364   -3.6314 C.ar    1  UNL1        0.0395
     20 C          10.4591   -2.2388   -2.9499 C.ar    1  UNL1        0.0417
     21 C           9.1004   -1.9351   -2.9116 C.ar    1  UNL1       -0.0311
     22 C           9.4913   -0.0539   -4.3881 C.ar    1  UNL1       -0.0494
     23 C          10.8532   -0.3659   -4.4198 C.ar    1  UNL1       -0.0597
     24 C          11.3380   -1.4594   -3.6993 C.ar    1  UNL1       -0.0433
     25 O           4.6676    1.5847   -3.5406 O.3     1  UNL1       -0.3191
     26 C           3.3783    1.6769   -4.0021 C.2     1  UNL1        0.3324
     27 O           2.7360    0.8166   -4.5948 O.2     1  UNL1       -0.2487
     28 C           2.8012    3.0000   -3.5956 C.3     1  UNL1        0.0356
     29 O           4.7214   -2.5855   -4.6936 O.3     1  UNL1       -0.4256
     30 C           4.3230   -3.0509   -5.9504 C.2     1  UNL1        0.3092
     31 O           3.2238   -3.4855   -6.2658 O.2     1  UNL1       -0.2507
     32 C           5.4999   -3.0123   -6.8808 C.3     1  UNL1        0.0336
     33 O           0.6991   -5.0586    0.4881 O.2     1  UNL1       -0.2449
     34 O           3.3543   -5.2533    4.1323 O.2     1  UNL1       -0.2658
     35 C           4.2059   -2.5307    3.8955 C.3     1  UNL1       -0.0154
     36 CL         11.0554   -3.5862   -2.0610 Cl      1  UNL1       -0.0835
     37 H           1.7970   -6.1469    2.3610 H       1  UNL1        0.1735
     38 H           0.3653   -2.7312   -0.2750 H       1  UNL1        0.0560
     39 H           1.2750   -1.3477    0.3023 H       1  UNL1        0.0560
     40 H           3.4575   -0.7797   -0.6777 H       1  UNL1        0.0627
     41 H           1.2536   -4.1729   -2.1236 H       1  UNL1        0.0622
     42 H           2.6683   -4.2685   -4.1101 H       1  UNL1        0.0654
     43 H           5.2098    0.0949   -1.7897 H       1  UNL1        0.1083
     44 H           8.4313   -2.5560   -2.3214 H       1  UNL1        0.0640
     45 H           9.1241    0.8029   -4.9500 H       1  UNL1        0.0625
     46 H          11.5387    0.2441   -5.0038 H       1  UNL1        0.0618
     47 H          12.3986   -1.6987   -3.7253 H       1  UNL1        0.0632
     48 H           2.6915    3.0389   -2.5082 H       1  UNL1        0.0342
     49 H           3.4378    3.8144   -3.9483 H       1  UNL1        0.0342
     50 H           1.8112    3.1184   -4.0499 H       1  UNL1        0.0342
     51 H           6.0693   -2.0904   -6.7378 H       1  UNL1        0.0342
     52 H           6.1350   -3.8838   -6.7050 H       1  UNL1        0.0342
     53 H           5.1419   -3.0280   -7.9146 H       1  UNL1        0.0342
     54 H           5.0060   -2.0156    3.3566 H       1  UNL1        0.0295
     55 H           3.6312   -1.7947    4.4655 H       1  UNL1        0.0295
     56 H           4.6568   -3.2407    4.5918 H       1  UNL1        0.0295
@<TRIPOS>BOND
     1     1     2   ar
     2     2     3   ar
     3     3     4   ar
     4     4     5   ar
     5     5     6   ar
     6     1     6   ar
     7     4     7    1
     8     7     8    1
     9    10    11   ar
    10    11    12   ar
    11    12    13   ar
    12     9    13   ar
    13     9     8   ar
    14     8    10   ar
    15    14    13    1
    16    16    17    1
    17    17    18    2
    18    15    18    1
    19    15    14    1
    20    14    16    1
    21    18    19    1
    22    20    21   ar
    23    22    23   ar
    24    23    24   ar
    25    20    24   ar
    26    21    19   ar
    27    19    22   ar
    28    16    25    1
    29    25    26    1
    30    26    27    2
    31    26    28    1
    32    12    29    1
    33    29    30    1
    34    30    31    2
    35    30    32    1
    36     5    33    2
    37     1    34    2
    38     2    35    1
    39    20    36    1
    40     6    37    1
    41     7    38    1
    42     7    39    1
    43     9    40    1
    44    10    41    1
    45    11    42    1
    46    14    43    1
    47    21    44    1
    48    22    45    1
    49    23    46    1
    50    24    47    1
    51    28    48    1
    52    28    49    1
    53    28    50    1
    54    32    51    1
    55    32    52    1
    56    32    53    1
    57    35    54    1
    58    35    55    1
    59    35    56    1
@<TRIPOS>MOLECULE
mol_722_akc_s11030_022_10548_9
*****
 56 59 0 0 0
SMALL
GASTEIGER

@<TRIPOS>ATOM
      1 C           6.6691   -7.7506   -4.5663 C.ar    1  UNL1        0.2754
      2 C           7.1226   -7.0995   -5.8526 C.ar    1  UNL1        0.1227
      3 N           6.5130   -6.0676   -6.3541 N.ar    1  UNL1       -0.1666
      4 N           5.4311   -5.5510   -5.6614 N.ar    1  UNL1       -0.2099
      5 C           4.9951   -6.0215   -4.4301 C.ar    1  UNL1        0.3458
      6 N           5.6435   -7.1141   -3.9383 N.ar    1  UNL1       -0.2723
      7 C           4.7975   -4.3616   -6.2319 C.3     1  UNL1        0.0717
      8 C           5.4768   -3.0953   -5.7654 C.ar    1  UNL1       -0.0253
      9 C           5.0425   -2.4114   -4.6147 C.ar    1  UNL1       -0.0446
     10 C           6.5970   -2.6279   -6.4536 C.ar    1  UNL1       -0.0533
     11 C           7.3153   -1.5523   -5.9534 C.ar    1  UNL1       -0.0184
     12 C           6.9377   -0.9494   -4.7451 C.ar    1  UNL1        0.1403
     13 C           5.7419   -1.2961   -4.1010 C.ar    1  UNL1        0.0607
     14 C           5.1239   -0.5386   -2.9404 C.3     1  UNL1        0.2559
     15 O           5.5172    0.8290   -2.8864 O.2     1  UNL1       -0.4419
     16 N           5.2995   -1.0259   -1.5737 N.3     1  UNL1       -0.0715
     17 N           5.7605   -0.0374   -0.7782 N.2     1  UNL1       -0.0979
     18 C           5.8528    0.9856   -1.5736 C.2     1  UNL1        0.2449
     19 C           6.3278    2.3355   -1.2332 C.ar    1  UNL1        0.0395
     20 C           6.6688    4.6596   -1.7947 C.ar    1  UNL1        0.0417
     21 C           6.1833    3.3982   -2.1337 C.ar    1  UNL1       -0.0311
     22 C           6.9454    2.5510    0.0049 C.ar    1  UNL1       -0.0494
     23 C           7.4304    3.8187    0.3353 C.ar    1  UNL1       -0.0597
     24 C           7.2945    4.8741   -0.5674 C.ar    1  UNL1       -0.0433
     25 O           5.9517   -2.3219   -1.4874 O.3     1  UNL1       -0.3191
     26 C           7.3175   -2.2955   -1.3622 C.2     1  UNL1        0.3324
     27 O           8.0682   -1.3258   -1.3354 O.2     1  UNL1       -0.2487
     28 C           7.8072   -3.7157   -1.3203 C.3     1  UNL1        0.0356
     29 O           7.7969    0.0269   -4.2288 O.3     1  UNL1       -0.4256
     30 C           9.0818   -0.4688   -3.9847 C.2     1  UNL1        0.3092
     31 O           9.4366   -1.6409   -3.9938 O.2     1  UNL1       -0.2507
     32 C          10.0397    0.6803   -3.8602 C.3     1  UNL1        0.0336
     33 O           4.0746   -5.5235   -3.7834 O.2     1  UNL1       -0.2449
     34 O           7.1918   -8.7722   -4.1504 O.2     1  UNL1       -0.2658
     35 C           8.3360   -7.6640   -6.5348 C.3     1  UNL1       -0.0154
     36 CL          6.5005    5.9637   -2.9053 Cl      1  UNL1       -0.0835
     37 H           5.3052   -7.4981   -3.0709 H       1  UNL1        0.1735
     38 H           4.8403   -4.4339   -7.3259 H       1  UNL1        0.0560
     39 H           3.7359   -4.3402   -5.9610 H       1  UNL1        0.0560
     40 H           4.1450   -2.7608   -4.1011 H       1  UNL1        0.0627
     41 H           6.9463   -3.1280   -7.3539 H       1  UNL1        0.0622
     42 H           8.2093   -1.2217   -6.4770 H       1  UNL1        0.0654
     43 H           4.0423   -0.5095   -3.1299 H       1  UNL1        0.1083
     44 H           5.6977    3.2495   -3.0943 H       1  UNL1        0.0640
     45 H           7.0628    1.7298    0.7102 H       1  UNL1        0.0625
     46 H           7.9187    3.9811    1.2933 H       1  UNL1        0.0618
     47 H           7.6783    5.8581   -0.3100 H       1  UNL1        0.0632
     48 H           7.1063   -4.3418   -0.7604 H       1  UNL1        0.0342
     49 H           7.9155   -4.0947   -2.3388 H       1  UNL1        0.0342
     50 H           8.7693   -3.7525   -0.8034 H       1  UNL1        0.0342
     51 H           9.5789    1.5160   -3.3323 H       1  UNL1        0.0342
     52 H          10.9178    0.3556   -3.2970 H       1  UNL1        0.0342
     53 H          10.3463    0.9889   -4.8641 H       1  UNL1        0.0342
     54 H           8.1148   -7.8310   -7.5932 H       1  UNL1        0.0295
     55 H           9.1568   -6.9455   -6.4529 H       1  UNL1        0.0295
     56 H           8.6538   -8.6107   -6.0932 H       1  UNL1        0.0295
@<TRIPOS>BOND
     1     1     2   ar
     2     2     3   ar
     3     3     4   ar
     4     4     5   ar
     5     5     6   ar
     6     1     6   ar
     7     4     7    1
     8     7     8    1
     9    10    11   ar
    10    11    12   ar
    11    12    13   ar
    12     9    13   ar
    13     9     8   ar
    14     8    10   ar
    15    16    17    1
    16    17    18    2
    17    15    18    1
    18    15    14    1
    19    14    16    1
    20    18    19    1
    21    20    21   ar
    22    22    23   ar
    23    23    24   ar
    24    20    24   ar
    25    21    19   ar
    26    19    22   ar
    27    16    25    1
    28    25    26    1
    29    26    27    2
    30    26    28    1
    31    12    29    1
    32    29    30    1
    33    30    31    2
    34    30    32    1
    35     5    33    2
    36     1    34    2
    37     2    35    1
    38    20    36    1
    39     6    37    1
    40     7    38    1
    41     7    39    1
    42     9    40    1
    43    10    41    1
    44    11    42    1
    45    21    44    1
    46    22    45    1
    47    23    46    1
    48    24    47    1
    49    28    48    1
    50    28    49    1
    51    28    50    1
    52    32    51    1
    53    32    52    1
    54    32    53    1
    55    35    54    1
    56    35    55    1
    57    35    56    1
    58    14    43    1
    59    14    13    1
@<TRIPOS>MOLECULE
mol_723_akc_jejmech2022114878
*****
 86 91 0 0 0
SMALL
GASTEIGER

@<TRIPOS>ATOM
      1 N          -0.2957    1.2207    0.3499 N.ar    1  UNL1       -0.1798
      2 N           0.6731    1.2343   -0.5447 N.ar    1  UNL1        0.0994
      3 N           1.2231    0.0314   -0.3717 N.ar    1  UNL1       -0.0694
      4 C           0.5330   -0.8003    0.5291 C.ar    1  UNL1        0.2302
      5 C          -0.3571    0.0644    1.1081 C.ar    1  UNL1        0.1038
      6 C           2.5005   -0.2227   -1.0393 C.3     1  UNL1        0.1682
      7 C           0.7672   -2.2494    0.7462 C.3     1  UNL1        0.0366
      8 C          -0.4643   -3.0133    1.2838 C.3     1  UNL1       -0.0386
      9 C          -1.6571   -3.1097    0.3101 C.3     1  UNL1       -0.0122
     10 C          -2.8190   -3.8974    0.9271 C.3     1  UNL1       -0.0354
     11 N          -3.9545   -3.9672   -0.0260 N.4     1  UNL1        0.2185
     12 C          -1.1691    2.3966    0.3644 C.ar    1  UNL1        0.0742
     13 C          -2.0709    2.4879    1.4217 C.ar    1  UNL1        0.0063
     14 C          -3.0838    3.4538    1.4250 C.ar    1  UNL1        0.1322
     15 C          -3.1441    4.4014    0.3851 C.ar    1  UNL1        0.0489
     16 C          -2.1937    4.3074   -0.6598 C.ar    1  UNL1       -0.0465
     17 C          -1.2107    3.3063   -0.6825 C.ar    1  UNL1       -0.0352
     18 O          -4.0975    3.4432    2.3527 O.3     1  UNL1       -0.4897
     19 C          -3.8585    2.7528    3.5796 C.3     1  UNL1        0.1053
     20 C          -5.1329    2.7030    4.4184 C.3     1  UNL1        0.0504
     21 N          -4.9833    2.0120    5.6908 N.am    1  UNL1       -0.2809
     22 C          -4.0078    1.0869    6.0426 C.2     1  UNL1        0.3024
     23 N          -4.2820    0.6532    7.3241 N.am    1  UNL1       -0.2977
     24 C          -5.5667    1.1126    7.7778 C.3     1  UNL1        0.0289
     25 C          -5.9776    2.1477    6.7387 C.3     1  UNL1        0.0319
     26 O          -3.0727    0.6860    5.3671 O.2     1  UNL1       -0.2526
     27 S          -4.8083    6.2410    1.7045 S.2     1  UNL1       -0.0753
     28 C          -4.1673    5.4654    0.3034 C.ar    1  UNL1        0.1120
     29 N          -4.6185    5.9499   -0.8371 N.ar    1  UNL1       -0.2438
     30 C          -5.5792    6.9279   -0.6117 C.ar    1  UNL1        0.0494
     31 C          -5.8349    7.1836    0.7202 C.ar    1  UNL1       -0.0010
     32 C          -6.2185    7.6200   -1.7746 C.3     1  UNL1       -0.0059
     33 C          -6.3002    6.7347   -3.0170 C.3     1  UNL1       -0.0223
     34 C          -8.1124    8.6966   -6.4510 C.ar    1  UNL1       -0.0179
     35 C          -6.7562    8.8882   -6.1263 C.ar    1  UNL1       -0.0538
     36 C          -6.1721    8.2675   -5.0157 C.ar    1  UNL1       -0.0580
     37 C          -6.9374    7.4404   -4.1830 C.ar    1  UNL1       -0.0470
     38 C          -8.2964    7.2840   -4.4574 C.ar    1  UNL1       -0.0580
     39 C          -8.8688    7.8949   -5.5785 C.ar    1  UNL1       -0.0538
     40 C          -8.7081    9.2881   -7.6762 C.ar    1  UNL1       -0.0179
     41 C          -7.9493    9.4516   -8.8512 C.ar    1  UNL1       -0.0540
     42 C          -8.5101    9.9855  -10.0172 C.ar    1  UNL1       -0.0612
     43 C          -9.8484   10.3563  -10.0417 C.ar    1  UNL1       -0.0617
     44 C         -10.6241   10.2031   -8.8974 C.ar    1  UNL1       -0.0612
     45 C         -10.0574    9.6826   -7.7282 C.ar    1  UNL1       -0.0540
     46 H          -1.0868   -0.0489    1.8871 H       1  UNL1        0.0896
     47 H           2.3305   -0.3666   -2.1090 H       1  UNL1        0.1018
     48 H           3.1610    0.6364   -0.8795 H       1  UNL1        0.1018
     49 H           2.9792   -1.1095   -0.6149 H       1  UNL1        0.1018
     50 H           1.0960   -2.7044   -0.1942 H       1  UNL1        0.0373
     51 H           1.5865   -2.3448    1.4681 H       1  UNL1        0.0373
     52 H          -0.1441   -4.0324    1.5345 H       1  UNL1        0.0272
     53 H          -0.8027   -2.5578    2.2233 H       1  UNL1        0.0272
     54 H          -2.0065   -2.1068    0.0404 H       1  UNL1        0.0317
     55 H          -1.3317   -3.5966   -0.6171 H       1  UNL1        0.0317
     56 H          -2.5359   -4.9286    1.1566 H       1  UNL1        0.0813
     57 H          -3.1985   -3.4110    1.8309 H       1  UNL1        0.0813
     58 H          -3.7126   -4.4710   -0.8915 H       1  UNL1        0.1994
     59 H          -4.7477   -4.4802    0.3897 H       1  UNL1        0.1994
     60 H          -4.3184   -3.0427   -0.2935 H       1  UNL1        0.1994
     61 H          -1.9913    1.7907    2.2397 H       1  UNL1        0.0676
     62 H          -2.2416    5.0185   -1.4881 H       1  UNL1        0.0626
     63 H          -0.5389    3.2508   -1.5330 H       1  UNL1        0.0639
     64 H          -3.5896    1.7183    3.3615 H       1  UNL1        0.0712
     65 H          -3.0548    3.2556    4.1315 H       1  UNL1        0.0712
     66 H          -5.4865    3.7210    4.6157 H       1  UNL1        0.0498
     67 H          -5.9254    2.1954    3.8565 H       1  UNL1        0.0498
     68 H          -3.7198   -0.0567    7.7755 H       1  UNL1        0.1503
     69 H          -5.4923    1.5214    8.7882 H       1  UNL1        0.0478
     70 H          -6.2454    0.2541    7.7791 H       1  UNL1        0.0478
     71 H          -5.9356    3.1668    7.1346 H       1  UNL1        0.0480
     72 H          -6.9761    1.9485    6.3368 H       1  UNL1        0.0480
     73 H          -6.5369    7.8857    1.1481 H       1  UNL1        0.0712
     74 H          -7.2263    7.9489   -1.4899 H       1  UNL1        0.0332
     75 H          -5.6412    8.5271   -1.9926 H       1  UNL1        0.0332
     76 H          -5.2999    6.3965   -3.3180 H       1  UNL1        0.0317
     77 H          -6.8629    5.8188   -2.7914 H       1  UNL1        0.0317
     78 H          -6.1281    9.5261   -6.7398 H       1  UNL1        0.0624
     79 H          -5.1182    8.4265   -4.8134 H       1  UNL1        0.0620
     80 H          -8.9215    6.6675   -3.8167 H       1  UNL1        0.0620
     81 H          -9.9227    7.7093   -5.7758 H       1  UNL1        0.0624
     82 H          -6.9057    9.1476   -8.8849 H       1  UNL1        0.0624
     83 H          -7.8971   10.1019  -10.9084 H       1  UNL1        0.0618
     84 H         -10.2877   10.7656  -10.9482 H       1  UNL1        0.0618
     85 H         -11.6729   10.4890   -8.9109 H       1  UNL1        0.0618
     86 H         -10.6941    9.5965   -6.8512 H       1  UNL1        0.0624
@<TRIPOS>UNITY_ATOM_ATTR
3 1
charge 1
11 1
charge 1
@<TRIPOS>BOND
     1     1     2   ar
     2     2     3   ar
     3     3     4   ar
     4     4     5   ar
     5     1     5   ar
     6     3     6    1
     7     7     8    1
     8     8     9    1
     9     9    10    1
    10    10    11    1
    11     4     7    1
    12    12    13   ar
    13    13    14   ar
    14    14    15   ar
    15    15    16   ar
    16    16    17   ar
    17    12    17   ar
    18    19    20    1
    19    21    22   am
    20    22    23   am
    21    23    24    1
    22    24    25    1
    23    21    25    1
    24    22    26    2
    25    20    21    1
    26    18    19    1
    27    14    18    1
    28    27    28   ar
    29    28    29   ar
    30    29    30   ar
    31    30    31   ar
    32    27    31   ar
    33    32    33    1
    34    34    35   ar
    35    35    36   ar
    36    36    37   ar
    37    37    38   ar
    38    38    39   ar
    39    34    39   ar
    40    40    41   ar
    41    41    42   ar
    42    42    43   ar
    43    43    44   ar
    44    44    45   ar
    45    40    45   ar
    46    34    40    1
    47    33    37    1
    48    30    32    1
    49    15    28    1
    50     1    12    1
    51     5    46    1
    52     6    47    1
    53     6    48    1
    54     6    49    1
    55     7    50    1
    56     7    51    1
    57     8    52    1
    58     8    53    1
    59     9    54    1
    60     9    55    1
    61    10    56    1
    62    10    57    1
    63    11    58    1
    64    11    59    1
    65    11    60    1
    66    13    61    1
    67    16    62    1
    68    17    63    1
    69    19    64    1
    70    19    65    1
    71    20    66    1
    72    20    67    1
    73    23    68    1
    74    24    69    1
    75    24    70    1
    76    25    71    1
    77    25    72    1
    78    31    73    1
    79    32    74    1
    80    32    75    1
    81    33    76    1
    82    33    77    1
    83    35    78    1
    84    36    79    1
    85    38    80    1
    86    39    81    1
    87    41    82    1
    88    42    83    1
    89    43    84    1
    90    44    85    1
    91    45    86    1
@<TRIPOS>MOLECULE
mol_724_akc_1478641920222140336
*****
 60 63 0 0 0
SMALL
GASTEIGER

@<TRIPOS>ATOM
      1 C           0.6907    0.4143    0.0831 C.ar    1  UNL1        0.0213
      2 C           1.3964   -0.7985    0.0671 C.ar    1  UNL1        0.1361
      3 C           0.7339   -2.0504   -0.0254 C.ar    1  UNL1        0.0409
      4 C          -0.6782   -2.0471   -0.1424 C.ar    1  UNL1        0.1380
      5 C          -1.4210   -0.8191   -0.0496 C.ar    1  UNL1        0.0634
      6 C          -0.7215    0.4056    0.0387 C.ar    1  UNL1       -0.0151
      7 C          -1.4598    1.7264    0.0384 C.3     1  UNL1        0.0372
      8 C          -2.9224   -0.7658   -0.0228 C.2     1  UNL1        0.1388
      9 C          -3.6410    0.3704   -0.0044 C.2     1  UNL1        0.0669
     10 C          -2.9559    1.6813   -0.0016 C.2     1  UNL1        0.1716
     11 C          -5.1147    0.3161   -0.0089 C.ar    1  UNL1       -0.0108
     12 C          -5.8358    0.2979    1.1938 C.ar    1  UNL1       -0.0504
     13 C          -7.2292    0.1892    1.1779 C.ar    1  UNL1       -0.0196
     14 C          -7.8948    0.0988   -0.0421 C.ar    1  UNL1        0.1169
     15 C          -7.1940    0.1196   -1.2403 C.ar    1  UNL1       -0.0196
     16 C          -5.8042    0.2300   -1.2266 C.ar    1  UNL1       -0.0504
     17 O          -3.6105   -1.9721    0.0251 O.2     1  UNL1       -0.5053
     18 O          -3.6010    2.7369   -0.0195 O.2     1  UNL1       -0.2916
     19 O          -9.2520   -0.0168   -0.1032 O.3     1  UNL1       -0.5068
     20 O          -1.4590   -3.1211   -0.5072 O.3     1  UNL1       -0.4940
     21 O           2.7687   -0.8474    0.1246 O.3     1  UNL1       -0.4812
     22 C           1.6199   -3.2884   -0.0817 C.3     1  UNL1       -0.0023
     23 C           1.9789   -3.6696   -1.4933 C.2     1  UNL1       -0.0807
     24 C           3.2114   -3.8826   -1.9957 C.2     1  UNL1       -0.0793
     25 C           3.3950   -4.1550   -3.4632 C.3     1  UNL1       -0.0440
     26 C           4.4729   -3.8479   -1.1782 C.3     1  UNL1       -0.0440
     27 C           1.4455    1.6677    0.1372 C.2     1  UNL1       -0.0510
     28 C           2.7768    1.6300    0.0996 C.2     1  UNL1       -0.0409
     29 C           3.5555    0.3498    0.0232 C.3     1  UNL1        0.1235
     30 C           4.3096    0.2964   -1.3100 C.3     1  UNL1       -0.0215
     31 C           4.5494    0.3035    1.1891 C.3     1  UNL1       -0.0215
     32 C          -1.1747   -4.4528   -0.1143 C.3     1  UNL1        0.0788
     33 H          -1.1521    2.2899   -0.8525 H       1  UNL1        0.0394
     34 H          -1.1932    2.2829    0.9431 H       1  UNL1        0.0394
     35 H          -5.3149    0.3555    2.1467 H       1  UNL1        0.0625
     36 H          -7.7701    0.1674    2.1186 H       1  UNL1        0.0654
     37 H          -7.7255    0.0432   -2.1856 H       1  UNL1        0.0654
     38 H          -5.2592    0.2369   -2.1667 H       1  UNL1        0.0625
     39 H          -2.9885   -2.6788   -0.2152 H       1  UNL1        0.2922
     40 H          -9.6047    0.0303    0.7997 H       1  UNL1        0.2921
     41 H           2.5186   -3.1292    0.5272 H       1  UNL1        0.0358
     42 H           1.1542   -4.1305    0.4300 H       1  UNL1        0.0358
     43 H           1.1309   -3.7318   -2.1741 H       1  UNL1        0.0575
     44 H           3.8783   -3.2964   -3.9408 H       1  UNL1        0.0274
     45 H           4.0178   -5.0412   -3.6194 H       1  UNL1        0.0274
     46 H           2.4412   -4.3304   -3.9722 H       1  UNL1        0.0274
     47 H           4.6821   -2.8360   -0.8217 H       1  UNL1        0.0274
     48 H           4.4052   -4.5230   -0.3192 H       1  UNL1        0.0274
     49 H           5.3365   -4.1702   -1.7706 H       1  UNL1        0.0274
     50 H           0.9412    2.6258    0.1840 H       1  UNL1        0.0623
     51 H           3.3350    2.5629    0.1119 H       1  UNL1        0.0611
     52 H           4.9692    1.1615   -1.4429 H       1  UNL1        0.0271
     53 H           4.9213   -0.6089   -1.3817 H       1  UNL1        0.0271
     54 H           3.6111    0.2636   -2.1549 H       1  UNL1        0.0271
     55 H           4.0200    0.2635    2.1491 H       1  UNL1        0.0271
     56 H           5.1676   -0.6003    1.1406 H       1  UNL1        0.0271
     57 H           5.2135    1.1749    1.1992 H       1  UNL1        0.0271
     58 H          -0.4538   -4.9133   -0.7924 H       1  UNL1        0.0660
     59 H          -0.8786   -4.5176    0.9355 H       1  UNL1        0.0660
     60 H          -2.1025   -5.0251   -0.2256 H       1  UNL1        0.0660
@<TRIPOS>BOND
     1     1     2   ar
     2     2     3   ar
     3     3     4   ar
     4     4     5   ar
     5     5     6   ar
     6     1     6   ar
     7     8     9    2
     8     9    10    1
     9     7    10    1
    10     5     8    1
    11     7     6    1
    12    12    13   ar
    13    13    14   ar
    14    14    15   ar
    15    15    16   ar
    16    11    12   ar
    17    11    16   ar
    18     9    11    1
    19     8    17    1
    20    10    18    2
    21    14    19    1
    22     4    20    1
    23     2    21    1
    24     3    22    1
    25    22    23    1
    26    23    24    2
    27    24    25    1
    28    24    26    1
    29     1    27    1
    30    27    28    2
    31    28    29    1
    32    21    29    1
    33    29    30    1
    34    29    31    1
    35    20    32    1
    36     7    33    1
    37     7    34    1
    38    12    35    1
    39    13    36    1
    40    15    37    1
    41    16    38    1
    42    17    39    1
    43    19    40    1
    44    22    41    1
    45    22    42    1
    46    23    43    1
    47    25    44    1
    48    25    45    1
    49    25    46    1
    50    26    47    1
    51    26    48    1
    52    26    49    1
    53    27    50    1
    54    28    51    1
    55    30    52    1
    56    30    53    1
    57    30    54    1
    58    31    55    1
    59    31    56    1
    60    31    57    1
    61    32    58    1
    62    32    59    1
    63    32    60    1
@<TRIPOS>MOLECULE
mol_725_akc_s11686_022_00632_3
*****
 41 44 0 0 0
SMALL
GASTEIGER

@<TRIPOS>ATOM
      1 C           2.7154    4.2053    2.0639 C.ar    1  UNL1       -0.0613
      2 C           3.5017    3.8275    3.1529 C.ar    1  UNL1       -0.0617
      3 C           3.2996    2.5919    3.7623 C.ar    1  UNL1       -0.0613
      4 C           2.3111    1.7329    3.2883 C.ar    1  UNL1       -0.0526
      5 C           1.5103    2.1008    2.1979 C.ar    1  UNL1        0.0172
      6 C           1.7229    3.3488    1.5893 C.ar    1  UNL1       -0.0526
      7 C           0.4288    1.1805    1.7178 C.3     1  UNL1        0.1779
      8 N          -0.7804    1.4296    2.4903 N.ar    1  UNL1       -0.1762
      9 C          -2.5209    1.2770    3.8635 C.ar    1  UNL1        0.1229
     10 C          -1.2459    0.7547    3.6163 C.ar    1  UNL1        0.2333
     11 C          -1.6632    2.3991    2.1937 C.ar    1  UNL1        0.2537
     12 N          -2.8398    1.9843    2.7007 N.ar    1  UNL1       -0.2572
     13 C          -0.6900   -0.2413    4.4102 C.ar    1  UNL1        0.0119
     14 C          -1.4432   -0.6268    5.5291 C.ar    1  UNL1       -0.0554
     15 C          -2.6818   -0.0272    5.8341 C.ar    1  UNL1       -0.0594
     16 C          -3.2571    0.9386    4.9973 C.ar    1  UNL1       -0.0312
     17 C          -4.0365    1.8619    1.8593 C.ar    1  UNL1        0.0521
     18 C          -5.7718    0.3585    1.1117 C.ar    1  UNL1       -0.0496
     19 C          -4.9232    0.8155    2.1242 C.ar    1  UNL1       -0.0370
     20 C          -4.0554    2.5256    0.6317 C.ar    1  UNL1       -0.0370
     21 C          -4.8977    2.0603   -0.3800 C.ar    1  UNL1       -0.0496
     22 C          -5.7247    0.9553   -0.1498 C.ar    1  UNL1        0.0143
     23 C          -6.4917    0.3652   -1.2640 C.2     1  UNL1        0.1502
     24 H          -7.1381   -0.4964   -1.0270 H       1  UNL1        0.1081
     25 O          -6.3787    0.7943   -2.4045 O.2     1  UNL1       -0.2957
     26 H           2.8875    5.1689    1.5857 H       1  UNL1        0.0618
     27 H           4.2777    4.4932    3.5209 H       1  UNL1        0.0618
     28 H           3.9187    2.2964    4.6063 H       1  UNL1        0.0618
     29 H           2.1780    0.7726    3.7791 H       1  UNL1        0.0622
     30 H           1.1342    3.6638    0.7296 H       1  UNL1        0.0622
     31 H           0.2038    1.3593    0.6589 H       1  UNL1        0.1086
     32 H           0.7205    0.1291    1.8062 H       1  UNL1        0.1086
     33 H          -1.5031    3.1942    1.4760 H       1  UNL1        0.1605
     34 H           0.2616   -0.7009    4.1760 H       1  UNL1        0.0684
     35 H          -1.0580   -1.4074    6.1867 H       1  UNL1        0.0620
     36 H          -3.2139   -0.3403    6.7337 H       1  UNL1        0.0618
     37 H          -4.2201    1.3885    5.2068 H       1  UNL1        0.0640
     38 H          -6.4094   -0.5034    1.2988 H       1  UNL1        0.0625
     39 H          -4.9134    0.2665    3.0577 H       1  UNL1        0.0638
     40 H          -3.3959    3.3544    0.4028 H       1  UNL1        0.0638
     41 H          -4.8697    2.5238   -1.3663 H       1  UNL1        0.0625
@<TRIPOS>UNITY_ATOM_ATTR
8 1
charge 1
@<TRIPOS>BOND
     1     1     2   ar
     2     2     3   ar
     3     3     4   ar
     4     4     5   ar
     5     5     6   ar
     6     1     6   ar
     7     5     7    1
     8     7     8    1
     9    11    12   ar
    10     9    12   ar
    11    10     8   ar
    12     8    11   ar
    13    13    14   ar
    14    14    15   ar
    15    15    16   ar
    16     9    16   ar
    17    10    13   ar
    18     9    10   ar
    19    12    17    1
    20    18    19   ar
    21    20    21   ar
    22    21    22   ar
    23    18    22   ar
    24    19    17   ar
    25    17    20   ar
    26    22    23    1
    27    23    24    1
    28    23    25    2
    29     1    26    1
    30     2    27    1
    31     3    28    1
    32     4    29    1
    33     6    30    1
    34     7    31    1
    35     7    32    1
    36    11    33    1
    37    13    34    1
    38    14    35    1
    39    15    36    1
    40    16    37    1
    41    18    38    1
    42    19    39    1
    43    20    40    1
    44    21    41    1
@<TRIPOS>MOLECULE
mol_726_akc_1478641920222137797
*****
 30 32 0 0 0
SMALL
GASTEIGER

@<TRIPOS>ATOM
      1 C           1.2731    0.7731   -0.0049 C.ar    1  UNL1        0.0745
      2 C           2.5131    1.4369   -0.0004 C.ar    1  UNL1        0.1286
      3 C           3.7155    0.7233    0.0032 C.ar    1  UNL1       -0.0165
      4 C           3.7089   -0.6726    0.0041 C.ar    1  UNL1       -0.0463
      5 C           2.4793   -1.3414    0.0016 C.ar    1  UNL1       -0.0471
      6 C           1.2695   -0.6214   -0.0030 C.ar    1  UNL1        0.0368
      7 C          -0.0029   -1.3697   -0.0057 C.2     1  UNL1        0.1949
      8 C          -1.2829   -0.6349   -0.0043 C.ar    1  UNL1        0.0400
      9 C          -1.3028    0.7618   -0.0060 C.ar    1  UNL1        0.0748
     10 C          -0.0178    1.5128   -0.0164 C.2     1  UNL1        0.2015
     11 C          -2.5510    1.4133   -0.0025 C.ar    1  UNL1        0.1318
     12 C          -2.4812   -1.3716   -0.0013 C.ar    1  UNL1       -0.0084
     13 C          -3.6976   -0.7014   -0.0004 C.ar    1  UNL1        0.1210
     14 C          -3.7422    0.6847   -0.0007 C.ar    1  UNL1        0.0221
     15 O           0.0005   -2.5950   -0.0071 O.2     1  UNL1       -0.2866
     16 O          -0.0245    2.7366   -0.0413 O.2     1  UNL1       -0.2864
     17 O          -2.6369    2.7770    0.0014 O.3     1  UNL1       -0.5059
     18 O          -4.8854   -1.3685    0.0013 O.3     1  UNL1       -0.5066
     19 O           2.5837    2.8012    0.0033 O.3     1  UNL1       -0.5060
     20 C           4.9982   -1.4405    0.0085 C.3     1  UNL1       -0.0396
     21 H           4.6647    1.2539    0.0059 H       1  UNL1        0.0657
     22 H           2.4609   -2.4317    0.0028 H       1  UNL1        0.0627
     23 H          -2.4493   -2.4585   -0.0001 H       1  UNL1        0.0661
     24 H          -4.7073    1.1829    0.0009 H       1  UNL1        0.0691
     25 H          -3.5621    3.0664   -0.0013 H       1  UNL1        0.2922
     26 H          -4.7168   -2.3261    0.0005 H       1  UNL1        0.2921
     27 H           3.5043    3.1031   -0.0025 H       1  UNL1        0.2922
     28 H           5.0628   -2.0681    0.9027 H       1  UNL1        0.0278
     29 H           5.0684   -2.0689   -0.8847 H       1  UNL1        0.0278
     30 H           5.8631   -0.7677    0.0109 H       1  UNL1        0.0278
@<TRIPOS>BOND
     1     1     2   ar
     2     2     3   ar
     3     3     4   ar
     4     4     5   ar
     5     5     6   ar
     6     7     8    1
     7     8     9   ar
     8     9    10    1
     9     1     6   ar
    10     1    10    1
    11     6     7    1
    12    12    13   ar
    13    13    14   ar
    14    11    14   ar
    15     8    12   ar
    16    11     9   ar
    17     7    15    2
    18    10    16    2
    19    11    17    1
    20    13    18    1
    21     2    19    1
    22     4    20    1
    23     3    21    1
    24     5    22    1
    25    12    23    1
    26    14    24    1
    27    17    25    1
    28    18    26    1
    29    19    27    1
    30    20    28    1
    31    20    29    1
    32    20    30    1
@<TRIPOS>MOLECULE
mol_729_akc_antibiotics11121712
709.sdf
 42 43 0 0 0
SMALL
GASTEIGER

@<TRIPOS>ATOM
      1 C          -1.3644   -1.0964   -0.2669 C.3     1  UNL1       -0.0436
      2 C          -2.4830   -0.0963   -0.5092 C.3     1  UNL1       -0.0486
      3 C          -2.2808    1.1676    0.3160 C.3     1  UNL1       -0.0317
      4 C          -0.8536    1.6676    0.3780 C.2     1  UNL1       -0.0728
      5 C           0.2118    0.8896    0.0658 C.2     1  UNL1       -0.0643
      6 C           0.0398   -0.5056   -0.5568 C.3     1  UNL1       -0.0108
      7 C           1.0809   -1.5326   -0.0407 C.3     1  UNL1       -0.0436
      8 C           1.6517    1.3519    0.2245 C.3     1  UNL1       -0.0256
      9 C           2.5903    0.3086    0.8819 C.3     1  UNL1       -0.0089
     10 C           2.5014   -0.9853    0.0508 C.3     1  UNL1       -0.0465
     11 C          -0.7294    3.1260    0.7423 C.3     1  UNL1       -0.0435
     12 C           0.2132   -0.3391   -2.0880 C.3     1  UNL1       -0.0558
     13 C           2.4085    0.1060    2.4298 C.3     1  UNL1        0.0636
     14 C           3.3663   -0.9662    2.9750 C.3     1  UNL1       -0.0361
     15 C           2.6689    1.4063    3.2053 C.3     1  UNL1       -0.0361
     16 O           1.0958   -0.3341    2.7751 O.3     1  UNL1       -0.3888
     17 H          -1.4232   -1.4285    0.7786 H       1  UNL1        0.0274
     18 H          -1.5356   -1.9881   -0.8832 H       1  UNL1        0.0274
     19 H          -3.4482   -0.5496   -0.2520 H       1  UNL1        0.0269
     20 H          -2.5386    0.1612   -1.5725 H       1  UNL1        0.0269
     21 H          -2.9434    1.9435   -0.0854 H       1  UNL1        0.0310
     22 H          -2.6073    0.9778    1.3474 H       1  UNL1        0.0310
     23 H           1.0871   -2.4120   -0.6982 H       1  UNL1        0.0274
     24 H           0.7867   -1.9139    0.9435 H       1  UNL1        0.0274
     25 H           2.0388    1.5794   -0.7776 H       1  UNL1        0.0314
     26 H           1.7249    2.2953    0.7719 H       1  UNL1        0.0314
     27 H           3.6140    0.6877    0.7455 H       1  UNL1        0.0331
     28 H           2.8740   -0.7805   -0.9612 H       1  UNL1        0.0269
     29 H           3.1710   -1.7558    0.4445 H       1  UNL1        0.0269
     30 H          -0.0822    3.2816    1.6081 H       1  UNL1        0.0274
     31 H          -0.3346    3.6847   -0.1150 H       1  UNL1        0.0274
     32 H          -1.7034    3.5663    0.9826 H       1  UNL1        0.0274
     33 H           0.0194   -1.2811   -2.6128 H       1  UNL1        0.0238
     34 H          -0.4699    0.4145   -2.4968 H       1  UNL1        0.0238
     35 H           1.2259   -0.0200   -2.3561 H       1  UNL1        0.0238
     36 H           4.4080   -0.7480    2.7176 H       1  UNL1        0.0257
     37 H           3.2916   -1.0386    4.0672 H       1  UNL1        0.0257
     38 H           3.1086   -1.9633    2.6050 H       1  UNL1        0.0257
     39 H           1.9346    2.1794    2.9595 H       1  UNL1        0.0257
     40 H           2.5687    1.2413    4.2853 H       1  UNL1        0.0257
     41 H           3.6731    1.7959    3.0117 H       1  UNL1        0.0257
     42 H           0.4574    0.3391    2.4705 H       1  UNL1        0.2101
@<TRIPOS>BOND
     1     1     2    1
     2     1     6    1
     3     1    17    1
     4     1    18    1
     5     2     3    1
     6     2    19    1
     7     2    20    1
     8     3     4    1
     9     3    21    1
    10     3    22    1
    11     4     5    2
    12     4    11    1
    13     5     8    1
    14     6     5    1
    15     6    12    1
    16     7     6    1
    17     7    10    1
    18     7    23    1
    19     7    24    1
    20     8     9    1
    21     8    25    1
    22     8    26    1
    23     9    10    1
    24    10    28    1
    25    10    29    1
    26    11    30    1
    27    11    31    1
    28    11    32    1
    29    12    33    1
    30    12    34    1
    31    12    35    1
    32    13    14    1
    33    13    15    1
    34    13    16    1
    35    14    36    1
    36    14    37    1
    37    14    38    1
    38    15    39    1
    39    15    40    1
    40    15    41    1
    41    16    42    1
    42     9    27    1
    43     9    13    1
@<TRIPOS>MOLECULE
mol_72_akc_cbdd13326
>71.sdf
 58 61 0 0 0
SMALL
GASTEIGER

@<TRIPOS>ATOM
      1 C          16.8778   -9.5649   -3.0027 C.3     1  UNL1        0.0820
      2 O          16.2327   -8.2948   -3.0882 O.3     1  UNL1       -0.4645
      3 C          15.0336   -8.3187   -3.7217 C.2     1  UNL1        0.3390
      4 O          14.4993   -9.2888   -4.2208 O.2     1  UNL1       -0.2450
      5 C          14.4233   -6.9617   -3.6905 C.ar    1  UNL1        0.0605
      6 C          15.1768   -5.8345   -3.3431 C.ar    1  UNL1       -0.0276
      7 C          14.5602   -4.5896   -3.2952 C.ar    1  UNL1        0.0629
      8 CL         15.5269   -3.2336   -2.8179 Cl      1  UNL1       -0.0816
      9 C          13.1830   -4.4552   -3.5496 C.ar    1  UNL1        0.0519
     10 N          12.6205   -3.1773   -3.4211 N.am    1  UNL1       -0.2836
     11 C          11.3353   -2.8347   -3.0736 C.2     1  UNL1        0.2275
     12 O          10.3975   -3.6245   -2.9765 O.2     1  UNL1       -0.2746
     13 C          11.1196   -1.3392   -2.8324 C.3     1  UNL1        0.0779
     14 S          12.5000   -0.5283   -1.9090 S.3     1  UNL1       -0.0768
     15 C          13.5347   -0.1143   -3.2502 C.ar    1  UNL1        0.1908
     16 N          13.4773   -0.7835   -4.3822 N.ar    1  UNL1       -0.2205
     17 C          13.2889    0.1943   -5.3120 C.ar    1  UNL1        0.0920
     18 C          13.4342    1.4566   -4.7298 C.ar    1  UNL1        0.0946
     19 C          12.9692    2.6244   -5.3422 C.ar    1  UNL1       -0.0159
     20 C          12.3838    2.4616   -6.6059 C.ar    1  UNL1        0.0431
     21 CL         11.6228    3.8142   -7.3509 Cl      1  UNL1       -0.0835
     22 C          12.3502    1.2221   -7.2553 C.ar    1  UNL1       -0.0413
     23 C          12.8328    0.0693   -6.6221 C.ar    1  UNL1       -0.0328
     24 N          13.9722    1.1695   -3.4817 N.ar    1  UNL1       -0.1858
     25 S          15.6624    1.3721   -3.1832 S.O2    1  UNL1        0.0864
     26 O          15.7743    1.2730   -1.7393 O.2     1  UNL1       -0.1476
     27 O          16.3454    0.4484   -4.0692 O.2     1  UNL1       -0.1476
     28 C          16.1354    3.0077   -3.6705 C.ar    1  UNL1        0.1116
     29 C          16.5215    3.9281   -2.6910 C.ar    1  UNL1       -0.0319
     30 C          17.0938    5.1490   -3.0661 C.ar    1  UNL1       -0.0483
     31 C          17.5809    6.1220   -2.0326 C.3     1  UNL1       -0.0396
     32 C          17.2598    5.4402   -4.4280 C.ar    1  UNL1       -0.0558
     33 C          16.8879    4.5175   -5.4150 C.ar    1  UNL1       -0.0483
     34 C          17.1348    4.8067   -6.8676 C.3     1  UNL1       -0.0396
     35 C          16.3372    3.2896   -5.0275 C.ar    1  UNL1       -0.0319
     36 C          12.4398   -5.5760   -3.9146 C.ar    1  UNL1       -0.0383
     37 C          13.0646   -6.8257   -4.0010 C.ar    1  UNL1       -0.0459
     38 H          16.2133  -10.3216   -2.5710 H       1  UNL1        0.0661
     39 H          17.2236   -9.8714   -3.9944 H       1  UNL1        0.0661
     40 H          17.7460   -9.4567   -2.3485 H       1  UNL1        0.0661
     41 H          16.2305   -5.9191   -3.0977 H       1  UNL1        0.0641
     42 H          13.3016   -2.4210   -3.4150 H       1  UNL1        0.1549
     43 H          10.9325   -0.8447   -3.7919 H       1  UNL1        0.0475
     44 H          10.2161   -1.2221   -2.2259 H       1  UNL1        0.0475
     45 H          12.9739    3.5852   -4.8355 H       1  UNL1        0.0654
     46 H          11.8932    1.1286   -8.2386 H       1  UNL1        0.0633
     47 H          12.7367   -0.9078   -7.0839 H       1  UNL1        0.0640
     48 H          16.4363    3.6773   -1.6347 H       1  UNL1        0.0640
     49 H          18.6543    6.3012   -2.1625 H       1  UNL1        0.0278
     50 H          17.0437    7.0704   -2.1208 H       1  UNL1        0.0278
     51 H          17.4306    5.7389   -1.0172 H       1  UNL1        0.0278
     52 H          17.7205    6.3840   -4.7184 H       1  UNL1        0.0623
     53 H          17.8569    4.0922   -7.2761 H       1  UNL1        0.0278
     54 H          16.1995    4.7376   -7.4318 H       1  UNL1        0.0278
     55 H          17.5402    5.8135   -7.0135 H       1  UNL1        0.0278
     56 H          16.1174    2.5403   -5.7871 H       1  UNL1        0.0640
     57 H          11.3846   -5.4950   -4.1615 H       1  UNL1        0.0637
     58 H          12.4799   -7.6933   -4.3000 H       1  UNL1        0.0626
@<TRIPOS>BOND
     1     1    38    1
     2     1    39    1
     3     1    40    1
     4     2     1    1
     5     3     2    1
     6     4     3    2
     7     5     3    1
     8     6     5   ar
     9     6    41    1
    10     7     6   ar
    11     8     7    1
    12     9     7   ar
    13    10     9    1
    14    10    42    1
    15    11    10   am
    16    12    11    2
    17    13    11    1
    18    13    43    1
    19    13    44    1
    20    14    13    1
    21    15    14    1
    22    16    15   ar
    23    17    16   ar
    24    18    17   ar
    25    19    18   ar
    26    19    45    1
    27    20    19   ar
    28    21    20    1
    29    22    20   ar
    30    22    46    1
    31    23    22   ar
    32    23    17   ar
    33    23    47    1
    34    24    18   ar
    35    24    15   ar
    36    25    24    1
    37    26    25    2
    38    27    25    2
    39    28    25    1
    40    29    28   ar
    41    29    48    1
    42    30    29   ar
    43    31    30    1
    44    31    49    1
    45    31    50    1
    46    31    51    1
    47    32    30   ar
    48    32    52    1
    49    33    32   ar
    50    34    33    1
    51    34    53    1
    52    34    54    1
    53    34    55    1
    54    35    33   ar
    55    35    28   ar
    56    35    56    1
    57    36     9   ar
    58    36    57    1
    59    37    36   ar
    60    37     5   ar
    61    37    58    1
@<TRIPOS>MOLECULE
mol_730_akc_tropicalmed7120403
*****
 55 57 0 0 0
SMALL
GASTEIGER

@<TRIPOS>ATOM
      1 N          -0.9715    0.6083    0.1912 N.ar    1  UNL1       -0.0557
      2 O          -0.7710   -0.7614    0.1240 O.2     1  UNL1       -0.3331
      3 C           0.5780   -0.9802   -0.0599 C.ar    1  UNL1        0.2516
      4 N           1.2361    0.1635   -0.1085 N.ar    1  UNL1       -0.1875
      5 C           0.2592    1.1173    0.0422 C.ar    1  UNL1        0.2026
      6 C           1.1034   -2.2919   -0.1818 C.2     1  UNL1        0.0034
      7 C           2.4175   -2.5145   -0.3379 C.2     1  UNL1       -0.0492
      8 C           2.9853   -3.8623   -0.4945 C.ar    1  UNL1       -0.0177
      9 C           0.5473    2.5457    0.0343 C.ar    1  UNL1        0.0296
     10 C          -0.2245    4.8630    0.1604 C.ar    1  UNL1        0.1658
     11 C          -0.4799    3.4851    0.1630 C.ar    1  UNL1       -0.0053
     12 C           1.8590    3.0032   -0.0969 C.ar    1  UNL1       -0.0053
     13 C           2.1451    4.3730   -0.0920 C.ar    1  UNL1        0.1658
     14 C           1.1070    5.3257    0.0137 C.ar    1  UNL1        0.2035
     15 C           2.4349   -4.9681    0.1568 C.ar    1  UNL1       -0.0089
     16 C           2.9646   -6.2475   -0.0285 C.ar    1  UNL1        0.1657
     17 C           4.1111   -6.4253   -0.8313 C.ar    1  UNL1        0.2035
     18 C           4.7094   -5.3073   -1.4496 C.ar    1  UNL1        0.1657
     19 C           4.1289   -4.0398   -1.2817 C.ar    1  UNL1       -0.0089
     20 O          -1.2249    5.7902    0.3043 O.3     1  UNL1       -0.4913
     21 O           1.5065    6.6341   -0.0693 O.3     1  UNL1       -0.4885
     22 O           3.4878    4.6286   -0.2593 O.3     1  UNL1       -0.4913
     23 O           5.8568   -5.5111   -2.1713 O.3     1  UNL1       -0.4913
     24 O           4.5914   -7.7141   -0.8783 O.3     1  UNL1       -0.4885
     25 O           2.4256   -7.3685    0.5617 O.3     1  UNL1       -0.4913
     26 C           1.0525   -7.2852    0.9316 C.3     1  UNL1        0.0790
     27 C           5.1712   -8.1440   -2.1028 C.3     1  UNL1        0.0791
     28 C           6.4825   -4.3885   -2.7791 C.3     1  UNL1        0.0790
     29 C           4.0101    5.7795    0.3936 C.3     1  UNL1        0.0790
     30 C           0.5562    7.6851   -0.0440 C.3     1  UNL1        0.0791
     31 C          -2.5648    5.3331    0.4472 C.3     1  UNL1        0.0790
     32 H           0.3837   -3.1016   -0.1592 H       1  UNL1        0.0672
     33 H           3.1211   -1.6844   -0.3842 H       1  UNL1        0.0625
     34 H          -1.4956    3.1111    0.2593 H       1  UNL1        0.0662
     35 H           2.6796    2.2940   -0.1989 H       1  UNL1        0.0662
     36 H           1.5973   -4.8186    0.8285 H       1  UNL1        0.0661
     37 H           4.5591   -3.1631   -1.7564 H       1  UNL1        0.0661
     38 H           0.9217   -6.6486    1.8126 H       1  UNL1        0.0660
     39 H           0.4339   -6.9329    0.0985 H       1  UNL1        0.0660
     40 H           0.7119   -8.2893    1.1993 H       1  UNL1        0.0660
     41 H           4.5931   -7.8124   -2.9725 H       1  UNL1        0.0660
     42 H           6.2173   -7.8336   -2.1718 H       1  UNL1        0.0660
     43 H           5.1702   -9.2386   -2.1023 H       1  UNL1        0.0660
     44 H           5.8313   -3.9374   -3.5350 H       1  UNL1        0.0660
     45 H           6.7929   -3.6531   -2.0299 H       1  UNL1        0.0660
     46 H           7.3841   -4.7435   -3.2875 H       1  UNL1        0.0660
     47 H           3.8910    6.6667   -0.2355 H       1  UNL1        0.0660
     48 H           3.5767    5.9280    1.3885 H       1  UNL1        0.0660
     49 H           5.0858    5.6246    0.5242 H       1  UNL1        0.0660
     50 H          -0.1540    7.6060   -0.8728 H       1  UNL1        0.0660
     51 H           0.0589    7.7438    0.9289 H       1  UNL1        0.0660
     52 H           1.1021    8.6243   -0.1807 H       1  UNL1        0.0660
     53 H          -2.9050    4.8268   -0.4625 H       1  UNL1        0.0660
     54 H          -2.6770    4.6924    1.3284 H       1  UNL1        0.0660
     55 H          -3.1999    6.2106    0.5973 H       1  UNL1        0.0660
@<TRIPOS>BOND
     1     1     2   ar
     2     1     5   ar
     3     2     3   ar
     4     3     4   ar
     5     4     5   ar
     6     3     6    1
     7     6     7    2
     8     7     8    1
     9     5     9    1
    10    11     9   ar
    11     9    12   ar
    12    10    11   ar
    13    10    14   ar
    14    12    13   ar
    15    13    14   ar
    16    19     8   ar
    17    15     8   ar
    18    15    16   ar
    19    16    17   ar
    20    17    18   ar
    21    18    19   ar
    22    10    20    1
    23    14    21    1
    24    13    22    1
    25    18    23    1
    26    17    24    1
    27    16    25    1
    28    25    26    1
    29    24    27    1
    30    23    28    1
    31    22    29    1
    32    21    30    1
    33    20    31    1
    34     6    32    1
    35     7    33    1
    36    11    34    1
    37    12    35    1
    38    15    36    1
    39    19    37    1
    40    26    38    1
    41    26    39    1
    42    26    40    1
    43    27    41    1
    44    27    42    1
    45    27    43    1
    46    28    44    1
    47    28    45    1
    48    28    46    1
    49    29    47    1
    50    29    48    1
    51    29    49    1
    52    30    50    1
    53    30    51    1
    54    30    52    1
    55    31    53    1
    56    31    54    1
    57    31    55    1
@<TRIPOS>MOLECULE
mol_731_akc_1475636620222150763
8-Benzyl-1,7,9-triphenyl-1,3,8-triazaspiro[4.5]decane-2,4-dione
 67 72 0 0 0
SMALL
GASTEIGER

@<TRIPOS>ATOM
      1 N           1.0415    0.2383    1.2304 N.am    1  UNL1       -0.2401
      2 C           2.3845    0.3724    0.8584 C.2     1  UNL1        0.3137
      3 N           2.4906   -0.0772   -0.4200 N.am    1  UNL1       -0.2379
      4 C           1.2942   -0.5038   -0.8940 C.2     1  UNL1        0.2449
      5 C           0.1780   -0.1737    0.1140 C.3     1  UNL1        0.1306
      6 C          -0.6661   -1.4661    0.3712 C.3     1  UNL1        0.0254
      7 C          -2.0545   -1.1466    0.9532 C.3     1  UNL1        0.0083
      8 N          -2.7150   -0.1503   -0.0175 N.4     1  UNL1        0.2494
      9 C          -1.9805    1.1902    0.1665 C.3     1  UNL1        0.0083
     10 C          -0.6189    1.0256   -0.5127 C.3     1  UNL1        0.0254
     11 O           3.3044    0.7727    1.5411 O.2     1  UNL1       -0.2518
     12 O           1.0951   -1.0113   -1.9887 O.2     1  UNL1       -0.2730
     13 C           0.5849    0.6093    2.5048 C.ar    1  UNL1        0.0389
     14 C           0.3693    1.9500    2.8209 C.ar    1  UNL1       -0.0402
     15 C          -0.2637    2.2857    4.0218 C.ar    1  UNL1       -0.0600
     16 C          -0.6387    1.2882    4.9200 C.ar    1  UNL1       -0.0616
     17 C          -0.3230   -0.0397    4.6481 C.ar    1  UNL1       -0.0600
     18 C           0.2958   -0.3794    3.4430 C.ar    1  UNL1       -0.0402
     19 C          -2.8606   -2.2634    1.5922 C.ar    1  UNL1        0.0003
     20 C          -2.7142   -2.4224    2.9901 C.ar    1  UNL1       -0.0533
     21 C          -3.6116   -3.1598    3.7548 C.ar    1  UNL1       -0.0613
     22 C          -4.6755   -3.7838    3.1291 C.ar    1  UNL1       -0.0617
     23 C          -4.7704   -3.7493    1.7384 C.ar    1  UNL1       -0.0613
     24 C          -3.8388   -3.0369    0.9667 C.ar    1  UNL1       -0.0533
     25 C          -2.7197    2.5090    0.0491 C.ar    1  UNL1        0.0003
     26 C          -2.5803    3.4020    1.1386 C.ar    1  UNL1       -0.0533
     27 C          -3.4169    4.4977    1.3150 C.ar    1  UNL1       -0.0613
     28 C          -4.4101    4.7432    0.3843 C.ar    1  UNL1       -0.0617
     29 C          -4.4960    3.9467   -0.7580 C.ar    1  UNL1       -0.0613
     30 C          -3.6261    2.8615   -0.9517 C.ar    1  UNL1       -0.0533
     31 C          -4.2148   -0.1292   -0.1493 C.3     1  UNL1       -0.0048
     32 C          -5.1270    0.2890    0.9573 C.ar    1  UNL1       -0.0029
     33 C          -4.7227    0.6607    2.2454 C.ar    1  UNL1       -0.0535
     34 C          -5.6594    1.0360    3.2010 C.ar    1  UNL1       -0.0613
     35 C          -7.0176    1.0449    2.8922 C.ar    1  UNL1       -0.0617
     36 C          -7.4427    0.6766    1.6221 C.ar    1  UNL1       -0.0613
     37 C          -6.5060    0.3018    0.6644 C.ar    1  UNL1       -0.0535
     38 H           3.3748   -0.1685   -0.8966 H       1  UNL1        0.1591
     39 H          -0.1167   -2.1443    1.0357 H       1  UNL1        0.0349
     40 H          -0.8025   -2.0249   -0.5647 H       1  UNL1        0.0349
     41 H          -1.8642   -0.5325    1.8327 H       1  UNL1        0.0905
     42 H          -1.7585    1.1999    1.2321 H       1  UNL1        0.0905
     43 H          -0.0337    1.9509   -0.4383 H       1  UNL1        0.0349
     44 H          -0.7746    0.8593   -1.5886 H       1  UNL1        0.0349
     45 H           0.6637    2.7427    2.1365 H       1  UNL1        0.0636
     46 H          -0.4669    3.3279    4.2624 H       1  UNL1        0.0618
     47 H          -1.1425    1.5488    5.8489 H       1  UNL1        0.0618
     48 H          -0.5620   -0.8120    5.3773 H       1  UNL1        0.0618
     49 H           0.5506   -1.4190    3.2536 H       1  UNL1        0.0636
     50 H          -1.9249   -1.9130    3.5310 H       1  UNL1        0.0622
     51 H          -3.4991   -3.2065    4.8361 H       1  UNL1        0.0618
     52 H          -5.4219   -4.3043    3.7248 H       1  UNL1        0.0618
     53 H          -5.6012   -4.2635    1.2584 H       1  UNL1        0.0618
     54 H          -3.9593   -3.0605   -0.1115 H       1  UNL1        0.0622
     55 H          -1.8489    3.2229    1.9202 H       1  UNL1        0.0622
     56 H          -3.3142    5.1260    2.1973 H       1  UNL1        0.0618
     57 H          -5.1105    5.5593    0.5474 H       1  UNL1        0.0618
     58 H          -5.2729    4.1650   -1.4885 H       1  UNL1        0.0618
     59 H          -3.7400    2.2817   -1.8627 H       1  UNL1        0.0622
     60 H          -4.4247    0.4788   -1.0331 H       1  UNL1        0.0867
     61 H          -4.5046   -1.1237   -0.4949 H       1  UNL1        0.0867
     62 H          -3.6774    0.6721    2.5359 H       1  UNL1        0.0622
     63 H          -5.3341    1.3249    4.1968 H       1  UNL1        0.0618
     64 H          -7.7454    1.3395    3.6445 H       1  UNL1        0.0618
     65 H          -8.5032    0.6821    1.3786 H       1  UNL1        0.0618
     66 H          -6.8681    0.0179   -0.3251 H       1  UNL1        0.0622
     67 H          -2.4668   -0.4819   -0.9560 H       1  UNL1        0.2050
@<TRIPOS>UNITY_ATOM_ATTR
8 1
charge 1
@<TRIPOS>BOND
     1     1     2   am
     2     1     5    1
     3     2     3   am
     4     3     4   am
     5     5     4    1
     6     5     6    1
     7     5    10    1
     8     6     7    1
     9     7     8    1
    10     8     9    1
    11     9    10    1
    12    13    14   ar
    13    13    18   ar
    14    14    15   ar
    15    14    45    1
    16    15    16   ar
    17    15    46    1
    18    16    17   ar
    19    16    47    1
    20    17    18   ar
    21    17    48    1
    22    18    49    1
    23    19    20   ar
    24    19    24   ar
    25    20    21   ar
    26    20    50    1
    27    21    22   ar
    28    21    51    1
    29    22    23   ar
    30    22    52    1
    31    23    24   ar
    32    23    53    1
    33    24    54    1
    34    25    26   ar
    35    25    30   ar
    36    26    27   ar
    37    26    55    1
    38    27    28   ar
    39    27    56    1
    40    28    29   ar
    41    28    57    1
    42    29    30   ar
    43    29    58    1
    44    30    59    1
    45    31    32    1
    46    31    60    1
    47    31    61    1
    48    32    33   ar
    49    32    37   ar
    50    33    34   ar
    51    33    62    1
    52    34    35   ar
    53    34    63    1
    54    35    36   ar
    55    35    64    1
    56    36    37   ar
    57    36    65    1
    58    37    66    1
    59     1    13    1
    60     2    11    2
    61     3    38    1
    62     4    12    2
    63     6    39    1
    64     6    40    1
    65     7    19    1
    66     7    41    1
    67     8    31    1
    68     8    67    1
    69     9    25    1
    70     9    42    1
    71    10    43    1
    72    10    44    1
@<TRIPOS>MOLECULE
mol_732_akc_1475636620222150763
9-Benzyl-1,8,10-triphenyl-1,4,9-triazaspiro[5.5]undecane-2,5-dione
 70 75 0 0 0
SMALL
GASTEIGER

@<TRIPOS>ATOM
      1 N          -1.4191   -1.5056   -0.3484 N.am    1  UNL1       -0.2550
      2 C          -2.6253   -0.9638   -0.8378 C.2     1  UNL1        0.2378
      3 C          -3.2104    0.1265    0.0791 C.3     1  UNL1        0.0887
      4 N          -2.2819    0.7757    0.9851 N.am    1  UNL1       -0.3049
      5 C          -1.2086    0.0183    1.3921 C.2     1  UNL1        0.2379
      6 C          -0.3818   -0.5957    0.2443 C.3     1  UNL1        0.1287
      7 C           0.8842   -1.3007    0.7844 C.3     1  UNL1        0.0253
      8 C           2.1376   -0.4375    1.0140 C.3     1  UNL1        0.0083
      9 N           2.4139    0.4761   -0.1685 N.4     1  UNL1        0.2494
     10 C           1.2316    1.3205   -0.6435 C.3     1  UNL1        0.0083
     11 C           0.0343    0.3813   -0.8932 C.3     1  UNL1        0.0253
     12 O          -3.2793   -1.4233   -1.7675 O.2     1  UNL1       -0.2735
     13 O          -1.0105   -0.1748    2.5805 O.2     1  UNL1       -0.2734
     14 C          -1.2212   -2.9008   -0.4465 C.ar    1  UNL1        0.0374
     15 C          -1.1916   -3.5325   -1.6903 C.ar    1  UNL1       -0.0402
     16 C          -1.0636   -4.9187   -1.7652 C.ar    1  UNL1       -0.0600
     17 C          -0.9925   -5.6798   -0.5984 C.ar    1  UNL1       -0.0616
     18 C          -1.0471   -5.0554    0.6467 C.ar    1  UNL1       -0.0600
     19 C          -1.1591   -3.6686    0.7252 C.ar    1  UNL1       -0.0402
     20 C           2.3180    0.1891    2.3911 C.ar    1  UNL1        0.0003
     21 C           3.3899   -0.2293    3.2045 C.ar    1  UNL1       -0.0533
     22 C           3.5273    0.2303    4.5210 C.ar    1  UNL1       -0.0613
     23 C           2.6102    1.1264    5.0535 C.ar    1  UNL1       -0.0617
     24 C           1.5704    1.5868    4.2591 C.ar    1  UNL1       -0.0613
     25 C           1.4425    1.1287    2.9475 C.ar    1  UNL1       -0.0533
     26 C           0.9648    2.6144    0.1176 C.ar    1  UNL1        0.0003
     27 C           1.9992    3.3512    0.7271 C.ar    1  UNL1       -0.0533
     28 C           1.7196    4.4794    1.5093 C.ar    1  UNL1       -0.0613
     29 C           0.4136    4.9308    1.6526 C.ar    1  UNL1       -0.0617
     30 C          -0.6068    4.2931    0.9635 C.ar    1  UNL1       -0.0613
     31 C          -0.3268    3.1689    0.1824 C.ar    1  UNL1       -0.0533
     32 C           3.0863   -0.2316   -1.3541 C.3     1  UNL1       -0.0048
     33 C           4.4276   -0.8579   -1.0778 C.ar    1  UNL1       -0.0029
     34 C           4.5958   -2.2469   -1.2175 C.ar    1  UNL1       -0.0535
     35 C           5.8401   -2.8393   -0.9965 C.ar    1  UNL1       -0.0613
     36 C           6.9315   -2.0532   -0.6392 C.ar    1  UNL1       -0.0617
     37 C           6.7823   -0.6738   -0.5104 C.ar    1  UNL1       -0.0613
     38 C           5.5392   -0.0754   -0.7313 C.ar    1  UNL1       -0.0535
     39 H          -3.6740    0.9083   -0.5282 H       1  UNL1        0.0558
     40 H          -3.9755   -0.3534    0.7010 H       1  UNL1        0.0558
     41 H          -2.7418    1.1914    1.7910 H       1  UNL1        0.1493
     42 H           0.6709   -1.8520    1.7078 H       1  UNL1        0.0349
     43 H           1.1855   -2.0623    0.0505 H       1  UNL1        0.0349
     44 H           2.9546   -1.1660    0.9748 H       1  UNL1        0.0905
     45 H           1.5334    1.6967   -1.6313 H       1  UNL1        0.0905
     46 H           0.2984   -0.2441   -1.7608 H       1  UNL1        0.0349
     47 H          -0.8212    0.9525   -1.2667 H       1  UNL1        0.0349
     48 H          -1.2870   -2.9570   -2.6081 H       1  UNL1        0.0636
     49 H          -1.0528   -5.4115   -2.7349 H       1  UNL1        0.0618
     50 H          -0.9279   -6.7632   -0.6598 H       1  UNL1        0.0618
     51 H          -1.0371   -5.6540    1.5557 H       1  UNL1        0.0618
     52 H          -1.2613   -3.2069    1.7042 H       1  UNL1        0.0636
     53 H           4.1228   -0.9510    2.8463 H       1  UNL1        0.0622
     54 H           4.3414   -0.1327    5.1448 H       1  UNL1        0.0618
     55 H           2.6890    1.4562    6.0863 H       1  UNL1        0.0618
     56 H           0.8369    2.2810    4.6627 H       1  UNL1        0.0618
     57 H           0.5955    1.5239    2.4055 H       1  UNL1        0.0622
     58 H           3.0436    3.0643    0.6568 H       1  UNL1        0.0622
     59 H           2.5250    5.0000    2.0246 H       1  UNL1        0.0618
     60 H           0.1944    5.7910    2.2804 H       1  UNL1        0.0618
     61 H          -1.6265    4.6682    1.0339 H       1  UNL1        0.0618
     62 H          -1.1699    2.7477   -0.3575 H       1  UNL1        0.0622
     63 H           2.3799   -0.9808   -1.7261 H       1  UNL1        0.0867
     64 H           3.2237    0.5172   -2.1441 H       1  UNL1        0.0867
     65 H           3.7691   -2.8902   -1.5176 H       1  UNL1        0.0622
     66 H           5.9657   -3.9141   -1.1166 H       1  UNL1        0.0618
     67 H           7.9038   -2.5148   -0.4766 H       1  UNL1        0.0618
     68 H           7.6475   -0.0649   -0.2529 H       1  UNL1        0.0618
     69 H           5.4711    1.0074   -0.6553 H       1  UNL1        0.0622
     70 H           3.1368    1.1144    0.1721 H       1  UNL1        0.2050
@<TRIPOS>UNITY_ATOM_ATTR
9 1
charge 1
@<TRIPOS>BOND
     1     1     2   am
     2     1     6    1
     3     1    14    1
     4     2     3    1
     5     2    12    2
     6     3     4    1
     7     3    39    1
     8     3    40    1
     9     4     5   am
    10     4    41    1
    11     5    13    2
    12     6     5    1
    13     6     7    1
    14     6    11    1
    15     7     8    1
    16     7    42    1
    17     7    43    1
    18     8     9    1
    19     8    20    1
    20     8    44    1
    21     9    10    1
    22    10    11    1
    23    10    26    1
    24    10    45    1
    25    11    46    1
    26    11    47    1
    27    14    15   ar
    28    14    19   ar
    29    15    16   ar
    30    15    48    1
    31    16    17   ar
    32    16    49    1
    33    17    18   ar
    34    17    50    1
    35    18    19   ar
    36    18    51    1
    37    19    52    1
    38    20    21   ar
    39    20    25   ar
    40    21    22   ar
    41    21    53    1
    42    22    23   ar
    43    22    54    1
    44    23    24   ar
    45    23    55    1
    46    24    25   ar
    47    24    56    1
    48    25    57    1
    49    26    27   ar
    50    26    31   ar
    51    27    28   ar
    52    27    58    1
    53    28    29   ar
    54    28    59    1
    55    29    30   ar
    56    29    60    1
    57    30    31   ar
    58    30    61    1
    59    31    62    1
    60    32    33    1
    61    32    63    1
    62    32    64    1
    63    33    34   ar
    64    33    38   ar
    65    34    35   ar
    66    34    65    1
    67    35    36   ar
    68    35    66    1
    69    36    37   ar
    70    36    67    1
    71    37    38   ar
    72    37    68    1
    73    38    69    1
    74     9    70    1
    75     9    32    1
@<TRIPOS>MOLECULE
mol_733_akc_jacdkac395
*****
 35 37 0 0 0
SMALL
GASTEIGER

@<TRIPOS>ATOM
      1 C           1.8594   -0.9115    0.4339 C.ar    1  UNL1        0.0022
      2 C           0.6724   -1.4801   -0.0506 C.ar    1  UNL1       -0.0524
      3 C          -0.4002   -0.6708   -0.3854 C.ar    1  UNL1       -0.0593
      4 C          -0.2907    0.7078   -0.2421 C.ar    1  UNL1       -0.0384
      5 C           0.8897    1.3108    0.2365 C.ar    1  UNL1        0.0572
      6 C           1.9884    0.4913    0.5912 C.ar    1  UNL1        0.0920
      7 N           3.1372    1.0302    1.0685 N.ar    1  UNL1       -0.2531
      8 C           4.1567    0.1996    1.3898 C.ar    1  UNL1        0.0283
      9 C           4.1092   -1.1741    1.2589 C.ar    1  UNL1       -0.0430
     10 C           2.9383   -1.7364    0.7718 C.ar    1  UNL1       -0.0511
     11 N           0.9925    2.7239    0.3936 N.pl3   1  UNL1       -0.3188
     12 C           0.0507    3.6801    0.1309 C.2     1  UNL1       -0.0025
     13 C           0.0757    5.0130    0.2338 C.2     1  UNL1       -0.0006
     14 C           1.2231    5.8418    0.6846 C.2     1  UNL1        0.1872
     15 O           2.3704    5.4212    0.7424 O.2     1  UNL1       -0.2872
     16 C           0.9073    7.2678    0.9885 C.ar    1  UNL1        0.0218
     17 C          -0.3001    7.6350    1.6037 C.ar    1  UNL1       -0.0496
     18 C          -0.6040    8.9840    1.8057 C.ar    1  UNL1       -0.0427
     19 C           0.3026    9.9646    1.4075 C.ar    1  UNL1        0.0410
     20 C           1.5218    9.6073    0.8305 C.ar    1  UNL1       -0.0427
     21 C           1.8287    8.2575    0.6271 C.ar    1  UNL1       -0.0496
     22 CL         -0.0910   11.6251    1.6231 Cl      1  UNL1       -0.0835
     23 H           0.5781   -2.5573   -0.1675 H       1  UNL1        0.0624
     24 H          -1.3234   -1.1077   -0.7584 H       1  UNL1        0.0618
     25 H          -1.1555    1.3008   -0.5199 H       1  UNL1        0.0637
     26 H           5.0489    0.6895    1.7710 H       1  UNL1        0.0830
     27 H           4.9564   -1.7935    1.5294 H       1  UNL1        0.0633
     28 H           2.8724   -2.8146    0.6586 H       1  UNL1        0.0625
     29 H           1.9204    3.0408    0.6920 H       1  UNL1        0.1517
     30 H          -0.8926    3.2736   -0.2165 H       1  UNL1        0.0782
     31 H          -0.8222    5.5528   -0.0485 H       1  UNL1        0.0668
     32 H          -1.0119    6.8836    1.9370 H       1  UNL1        0.0625
     33 H          -1.5473    9.2619    2.2696 H       1  UNL1        0.0632
     34 H           2.2322   10.3732    0.5299 H       1  UNL1        0.0632
     35 H           2.7767    7.9815    0.1686 H       1  UNL1        0.0625
@<TRIPOS>BOND
     1     1     2   ar
     2     1     6   ar
     3     1    10   ar
     4     2     3   ar
     5     3     4   ar
     6     4     5   ar
     7     5     6   ar
     8     6     7   ar
     9     7     8   ar
    10     8     9   ar
    11     9    10   ar
    12     5    11    1
    13    11    12    1
    14    12    13    2
    15    13    14    1
    16    14    15    2
    17    14    16    1
    18    16    17   ar
    19    16    21   ar
    20    17    18   ar
    21    18    19   ar
    22    19    20   ar
    23    20    21   ar
    24    19    22    1
    25     2    23    1
    26     3    24    1
    27     4    25    1
    28     8    26    1
    29     9    27    1
    30    10    28    1
    31    11    29    1
    32    12    30    1
    33    13    31    1
    34    17    32    1
    35    18    33    1
    36    20    34    1
    37    21    35    1
@<TRIPOS>MOLECULE
mol_734_akc_acsomega2c06455
*****
 30 32 0 0 0
SMALL
GASTEIGER

@<TRIPOS>ATOM
      1 C          -1.2722    1.3882   -0.0108 C.ar    1  UNL1       -0.0490
      2 C          -2.4449    0.6363   -0.0571 C.ar    1  UNL1       -0.0610
      3 C          -2.3804   -0.7578   -0.0762 C.ar    1  UNL1       -0.0597
      4 C          -1.1411   -1.4067   -0.0706 C.ar    1  UNL1       -0.0355
      5 C           0.0481   -0.6739   -0.0450 C.ar    1  UNL1        0.0768
      6 C          -0.0368    0.7312    0.0043 C.ar    1  UNL1        0.0442
      7 C           1.2458    1.4727    0.0792 C.ar    1  UNL1        0.1588
      8 N           1.2727   -1.3863   -0.0748 N.ar    1  UNL1       -0.2291
      9 C           2.3750   -0.6915    0.0093 C.ar    1  UNL1        0.1403
     10 N           2.3634    0.6767    0.1032 N.ar    1  UNL1       -0.3228
     11 N           1.2576    2.7750    0.1189 N.2     1  UNL1       -0.1712
     12 N           2.5000    3.3347    0.1505 N.pl3   1  UNL1       -0.2806
     13 C           3.6754   -1.4204   -0.0146 C.ar    1  UNL1        0.0174
     14 C           3.7814   -2.6090   -0.7490 C.ar    1  UNL1       -0.0497
     15 C           4.7803   -0.9384    0.6972 C.ar    1  UNL1       -0.0497
     16 C           5.9825   -1.6521    0.6812 C.ar    1  UNL1       -0.0427
     17 C           6.0787   -2.8383   -0.0469 C.ar    1  UNL1        0.0410
     18 C           4.9862   -3.3167   -0.7675 C.ar    1  UNL1       -0.0427
     19 CL          7.5532   -3.7246   -0.0406 Cl      1  UNL1       -0.0835
     20 H          -1.3194    2.4730    0.0168 H       1  UNL1        0.0625
     21 H          -3.4100    1.1369   -0.0715 H       1  UNL1        0.0618
     22 H          -3.2957   -1.3442   -0.0976 H       1  UNL1        0.0618
     23 H          -1.0976   -2.4924   -0.0839 H       1  UNL1        0.0639
     24 H           3.2201    1.2012    0.1958 H       1  UNL1        0.1688
     25 H           2.9484    3.2341   -0.7681 H       1  UNL1        0.1642
     26 H           2.3911    4.3463    0.2630 H       1  UNL1        0.1642
     27 H           2.9274   -2.9867   -1.3079 H       1  UNL1        0.0625
     28 H           4.7151   -0.0365    1.2982 H       1  UNL1        0.0625
     29 H           6.8342   -1.2864    1.2489 H       1  UNL1        0.0632
     30 H           5.0600   -4.2399   -1.3361 H       1  UNL1        0.0632
@<TRIPOS>BOND
     1     1     2   ar
     2     1     6   ar
     3     2     3   ar
     4     3     4   ar
     5     4     5   ar
     6     7     6   ar
     7     5     6   ar
     8     5     8   ar
     9     7    10   ar
    10     8     9   ar
    11     9    10   ar
    12     7    11    2
    13    11    12    1
    14     9    13    1
    15    14    13   ar
    16    13    15   ar
    17    14    18   ar
    18    15    16   ar
    19    16    17   ar
    20    17    18   ar
    21    17    19    1
    22     1    20    1
    23     2    21    1
    24     3    22    1
    25     4    23    1
    26    10    24    1
    27    12    25    1
    28    12    26    1
    29    14    27    1
    30    15    28    1
    31    16    29    1
    32    18    30    1
@<TRIPOS>MOLECULE
mol_735_akc_slct202203852
2-henicosyl-5,7-dihydroxy-4H-chromen-4-one
 82 83 0 0 0
SMALL
GASTEIGER

@<TRIPOS>ATOM
      1 C          -0.1551    5.0154    3.0602 C.ar    1  UNL1        0.0223
      2 C          -0.1988    3.8883    3.8762 C.ar    1  UNL1        0.1239
      3 C          -1.1369    2.8891    3.6629 C.ar    1  UNL1        0.0231
      4 C          -2.0322    3.0061    2.5973 C.ar    1  UNL1        0.1457
      5 O          -2.9197    1.9713    2.4479 O.2     1  UNL1       -0.4592
      6 C          -3.7480    1.9782    1.3311 C.ar    1  UNL1        0.1093
      7 C          -3.7901    2.9701    0.4457 C.ar    1  UNL1        0.0240
      8 C          -2.9453    4.1612    0.6206 C.ar    1  UNL1        0.1963
      9 C          -1.9956    4.1213    1.7533 C.ar    1  UNL1        0.1054
     10 C          -1.0563    5.1294    2.0004 C.ar    1  UNL1        0.1347
     11 O          -3.0660    5.0926   -0.1620 O.2     1  UNL1       -0.2869
     12 O          -1.0036    6.2290    1.1932 O.3     1  UNL1       -0.5058
     13 O           0.6764    3.7216    4.9077 O.3     1  UNL1       -0.5065
     14 C          -4.6058    0.7593    1.2144 C.3     1  UNL1        0.0057
     15 C          -3.7631   -0.5191    1.1500 C.3     1  UNL1       -0.0462
     16 C          -4.6310   -1.7626    1.0645 C.3     1  UNL1       -0.0527
     17 C          -5.3945   -1.8928   -0.2551 C.3     1  UNL1       -0.0530
     18 C          -6.3523   -3.0835   -0.2057 C.3     1  UNL1       -0.0531
     19 C          -7.3851   -2.9534    0.9211 C.3     1  UNL1       -0.0531
     20 C          -8.2107   -1.6664    0.8059 C.3     1  UNL1       -0.0531
     21 C          -9.0321   -1.6501   -0.4851 C.3     1  UNL1       -0.0531
     22 C         -10.0076   -2.8298   -0.5260 C.3     1  UNL1       -0.0531
     23 C         -10.9866   -2.7688    0.6508 C.3     1  UNL1       -0.0531
     24 C         -11.8346   -1.4961    0.5816 C.3     1  UNL1       -0.0531
     25 C         -12.6576   -1.4681   -0.7092 C.3     1  UNL1       -0.0531
     26 C         -13.6066   -2.6691   -0.7719 C.3     1  UNL1       -0.0531
     27 C         -14.5996   -2.6410    0.3938 C.3     1  UNL1       -0.0531
     28 C         -15.4542   -1.3723    0.3518 C.3     1  UNL1       -0.0531
     29 C         -16.2739   -1.3029   -0.9431 C.3     1  UNL1       -0.0531
     30 C         -17.2635   -2.4649   -1.0566 C.3     1  UNL1       -0.0531
     31 C         -18.2474   -2.5172    0.1134 C.3     1  UNL1       -0.0531
     32 C         -19.0587   -1.2246    0.1785 C.3     1  UNL1       -0.0533
     33 C         -19.9954   -1.1661    1.3706 C.3     1  UNL1       -0.0559
     34 C         -20.7924    0.1268    1.3152 C.3     1  UNL1       -0.0653
     35 H           0.5796    5.7928    3.2408 H       1  UNL1        0.0691
     36 H          -1.1633    2.0158    4.3103 H       1  UNL1        0.0691
     37 H          -4.4411    2.9642   -0.4255 H       1  UNL1        0.0689
     38 H          -0.3665    6.8761    1.5412 H       1  UNL1        0.2922
     39 H           1.3120    4.4550    4.9128 H       1  UNL1        0.2921
     40 H          -5.2855    0.7192    2.0747 H       1  UNL1        0.0343
     41 H          -5.2368    0.8439    0.3250 H       1  UNL1        0.0343
     42 H          -3.0669   -0.4891    0.3053 H       1  UNL1        0.0269
     43 H          -3.1615   -0.6048    2.0632 H       1  UNL1        0.0269
     44 H          -4.0101   -2.6556    1.1938 H       1  UNL1        0.0265
     45 H          -5.3148   -1.7320    1.9189 H       1  UNL1        0.0265
     46 H          -5.9539   -0.9827   -0.4898 H       1  UNL1        0.0265
     47 H          -4.6900   -2.0221   -1.0840 H       1  UNL1        0.0265
     48 H          -6.8559   -3.1766   -1.1762 H       1  UNL1        0.0265
     49 H          -5.7870   -4.0103   -0.0732 H       1  UNL1        0.0265
     50 H          -8.0287   -3.8392    0.9180 H       1  UNL1        0.0265
     51 H          -6.9061   -2.9877    1.9027 H       1  UNL1        0.0265
     52 H          -8.8546   -1.5706    1.6862 H       1  UNL1        0.0265
     53 H          -7.5788   -0.7743    0.8483 H       1  UNL1        0.0265
     54 H          -9.5597   -0.6941   -0.5690 H       1  UNL1        0.0265
     55 H          -8.3866   -1.6783   -1.3681 H       1  UNL1        0.0265
     56 H         -10.5299   -2.8369   -1.4872 H       1  UNL1        0.0265
     57 H          -9.4807   -3.7880   -0.5136 H       1  UNL1        0.0265
     58 H         -11.6081   -3.6690    0.6548 H       1  UNL1        0.0265
     59 H         -10.4697   -2.8117    1.6135 H       1  UNL1        0.0265
     60 H         -12.4723   -1.4329    1.4687 H       1  UNL1        0.0265
     61 H         -11.2170   -0.5950    0.6413 H       1  UNL1        0.0265
     62 H         -13.1976   -0.5194   -0.7780 H       1  UNL1        0.0265
     63 H         -12.0170   -1.4629   -1.5960 H       1  UNL1        0.0265
     64 H         -14.1192   -2.6794   -1.7377 H       1  UNL1        0.0265
     65 H         -13.0599   -3.6168   -0.7611 H       1  UNL1        0.0265
     66 H         -15.2187   -3.5416    0.3689 H       1  UNL1        0.0265
     67 H         -14.0830   -2.6989    1.3582 H       1  UNL1        0.0265
     68 H         -16.0971   -1.3355    1.2365 H       1  UNL1        0.0265
     69 H         -14.8364   -0.4729    0.4397 H       1  UNL1        0.0265
     70 H         -16.7827   -0.3357   -0.9937 H       1  UNL1        0.0265
     71 H         -15.6211   -1.2950   -1.8226 H       1  UNL1        0.0265
     72 H         -17.8151   -2.3701   -1.9988 H       1  UNL1        0.0265
     73 H         -16.7309   -3.4193   -1.1225 H       1  UNL1        0.0265
     74 H         -18.9138   -3.3759   -0.0095 H       1  UNL1        0.0265
     75 H         -17.7197   -2.6821    1.0616 H       1  UNL1        0.0265
     76 H         -18.3964   -0.3552    0.2496 H       1  UNL1        0.0265
     77 H         -19.6222   -1.1199   -0.7573 H       1  UNL1        0.0265
     78 H         -20.6710   -2.0247    1.3645 H       1  UNL1        0.0263
     79 H         -19.4174   -1.2012    2.3010 H       1  UNL1        0.0263
     80 H         -21.3716    0.1847    0.3873 H       1  UNL1        0.0230
     81 H         -21.4870    0.1863    2.1583 H       1  UNL1        0.0230
     82 H         -20.1305    0.9979    1.3543 H       1  UNL1        0.0230
@<TRIPOS>BOND
     1     1     2   ar
     2     2     3   ar
     3     3     4   ar
     4     4     5   ar
     5     5     6   ar
     6     6     7   ar
     7     7     8   ar
     8     8     9   ar
     9     4     9   ar
    10     9    10   ar
    11     1    10   ar
    12     8    11    2
    13    10    12    1
    14     2    13    1
    15    14    15    1
    16    15    16    1
    17    16    17    1
    18    17    18    1
    19    18    19    1
    20    19    20    1
    21    20    21    1
    22    21    22    1
    23    22    23    1
    24    23    24    1
    25    24    25    1
    26    25    26    1
    27    26    27    1
    28    27    28    1
    29    28    29    1
    30    29    30    1
    31    30    31    1
    32    31    32    1
    33    32    33    1
    34    33    34    1
    35     6    14    1
    36     1    35    1
    37     3    36    1
    38     7    37    1
    39    12    38    1
    40    13    39    1
    41    14    40    1
    42    14    41    1
    43    15    42    1
    44    15    43    1
    45    16    44    1
    46    16    45    1
    47    17    46    1
    48    17    47    1
    49    18    48    1
    50    18    49    1
    51    19    50    1
    52    19    51    1
    53    20    52    1
    54    20    53    1
    55    21    54    1
    56    21    55    1
    57    22    56    1
    58    22    57    1
    59    23    58    1
    60    23    59    1
    61    24    60    1
    62    24    61    1
    63    25    62    1
    64    25    63    1
    65    26    64    1
    66    26    65    1
    67    27    66    1
    68    27    67    1
    69    28    68    1
    70    28    69    1
    71    29    70    1
    72    29    71    1
    73    30    72    1
    74    30    73    1
    75    31    74    1
    76    31    75    1
    77    32    76    1
    78    32    77    1
    79    33    78    1
    80    33    79    1
    81    34    80    1
    82    34    81    1
    83    34    82    1
@<TRIPOS>MOLECULE
mol_736_akc_jejmech2022114996
*****
 27 28 0 0 0
SMALL
GASTEIGER

@<TRIPOS>ATOM
      1 C          -1.8105   -0.0299   -0.2084 C.ar    1  UNL1       -0.0277
      2 C          -1.0774    1.1476   -0.0894 C.ar    1  UNL1        0.0419
      3 C           0.2825    1.1050    0.2048 C.ar    1  UNL1       -0.0399
      4 C           0.9144   -0.1255    0.3890 C.ar    1  UNL1       -0.0180
      5 C           0.1805   -1.3123    0.2773 C.ar    1  UNL1        0.1290
      6 C          -1.1912   -1.2799   -0.0300 C.ar    1  UNL1        0.0797
      7 CL         -1.8554    2.6661   -0.3059 Cl      1  UNL1       -0.0835
      8 O           0.8300   -2.5039    0.4760 O.3     1  UNL1       -0.5060
      9 C          -2.0617   -2.4931   -0.1863 C.2     1  UNL1        0.2518
     10 N          -1.4962   -3.7075    0.1513 N.am    1  UNL1       -0.2814
     11 O          -3.2143   -2.3284   -0.5745 O.2     1  UNL1       -0.2697
     12 C          -2.1068   -4.9775    0.1274 C.ar    1  UNL1        0.0338
     13 C          -3.9297   -6.5049   -0.3718 C.ar    1  UNL1       -0.0416
     14 C          -3.3742   -5.2211   -0.4093 C.ar    1  UNL1       -0.0391
     15 C          -1.3919   -6.0464    0.6832 C.ar    1  UNL1       -0.0391
     16 C          -1.9488   -7.3291    0.7307 C.ar    1  UNL1       -0.0416
     17 C          -3.2186   -7.5516    0.2059 C.ar    1  UNL1        0.0411
     18 CL         -3.9123   -9.1238    0.2749 Cl      1  UNL1       -0.0835
     19 H          -2.8731    0.0224   -0.4391 H       1  UNL1        0.0641
     20 H           0.8527    2.0264    0.2950 H       1  UNL1        0.0633
     21 H           1.9752   -0.1362    0.6232 H       1  UNL1        0.0655
     22 H           1.7807   -2.3290    0.5967 H       1  UNL1        0.2922
     23 H          -0.5393   -3.6663    0.4930 H       1  UNL1        0.1551
     24 H          -4.9178   -6.6711   -0.7925 H       1  UNL1        0.0633
     25 H          -3.9574   -4.4322   -0.8740 H       1  UNL1        0.0636
     26 H          -0.4025   -5.8917    1.1056 H       1  UNL1        0.0636
     27 H          -1.3909   -8.1441    1.1835 H       1  UNL1        0.0633
@<TRIPOS>BOND
     1     1     2   ar
     2     1     6   ar
     3     2     3   ar
     4     3     4   ar
     5     4     5   ar
     6     6     5   ar
     7     2     7    1
     8     5     8    1
     9     6     9    1
    10     9    10   am
    11     9    11    2
    12    10    12    1
    13    14    12   ar
    14    12    15   ar
    15    13    14   ar
    16    13    17   ar
    17    15    16   ar
    18    16    17   ar
    19    17    18    1
    20     1    19    1
    21     3    20    1
    22     4    21    1
    23     8    22    1
    24    10    23    1
    25    13    24    1
    26    14    25    1
    27    15    26    1
    28    16    27    1
@<TRIPOS>MOLECULE
mol_737_akc_s00044_022_02994_9
*****
 27 28 0 0 0
SMALL
GASTEIGER

@<TRIPOS>ATOM
      1 C           1.6471   -0.2000   -1.1798 C.ar    1  UNL1       -0.0331
      2 C           0.2593   -0.2446   -1.0039 C.ar    1  UNL1       -0.0413
      3 C          -0.2911    0.0658    0.2374 C.ar    1  UNL1        0.0411
      4 C           0.5334    0.4156    1.3036 C.ar    1  UNL1       -0.0413
      5 C           1.9190    0.4541    1.1234 C.ar    1  UNL1       -0.0331
      6 C           2.4953    0.1582   -0.1242 C.ar    1  UNL1        0.0879
      7 N           3.8882    0.1573   -0.3530 N.2     1  UNL1       -0.1313
      8 N           4.4683    1.0305    0.3263 N.2     1  UNL1       -0.0592
      9 N           5.8251    1.0436    0.1777 N.ar    1  UNL1       -0.2060
     10 N           7.9401    1.6763    0.5451 N.ar    1  UNL1       -0.2388
     11 C           6.6783    1.8846    0.8727 C.ar    1  UNL1        0.1318
     12 C           6.6258    0.2670   -0.6283 C.ar    1  UNL1        0.0508
     13 C           7.9144    0.6735   -0.3837 C.ar    1  UNL1        0.0478
     14 CL         -1.9953    0.0108    0.4585 Cl      1  UNL1       -0.0835
     15 C           6.1909    2.8759    1.8756 C.3     1  UNL1        0.0045
     16 C           6.1418    2.2741    3.2713 C.3     1  UNL1       -0.0584
     17 H           2.0710   -0.4473   -2.1504 H       1  UNL1        0.0640
     18 H          -0.3816   -0.5239   -1.8360 H       1  UNL1        0.0633
     19 H           0.1098    0.6541    2.2755 H       1  UNL1        0.0633
     20 H           2.5516    0.7147    1.9684 H       1  UNL1        0.0640
     21 H           6.2174   -0.4866   -1.2837 H       1  UNL1        0.0847
     22 H           8.8263    0.2942   -0.8271 H       1  UNL1        0.0846
     23 H           6.8656    3.7406    1.8793 H       1  UNL1        0.0341
     24 H           5.2002    3.2529    1.6006 H       1  UNL1        0.0341
     25 H           7.1351    1.9435    3.5938 H       1  UNL1        0.0234
     26 H           5.7801    3.0149    3.9916 H       1  UNL1        0.0234
     27 H           5.4717    1.4083    3.3089 H       1  UNL1        0.0234
@<TRIPOS>BOND
     1     1     2   ar
     2     1     6   ar
     3     2     3   ar
     4     3     4   ar
     5     4     5   ar
     6     5     6   ar
     7     6     7    1
     8     7     8    2
     9     8     9    1
    10    11     9   ar
    11     9    12   ar
    12    10    11   ar
    13    10    13   ar
    14    12    13   ar
    15     3    14    1
    16    11    15    1
    17    15    16    1
    18     1    17    1
    19     2    18    1
    20     4    19    1
    21     5    20    1
    22    12    21    1
    23    13    22    1
    24    15    23    1
    25    15    24    1
    26    16    25    1
    27    16    26    1
    28    16    27    1
@<TRIPOS>MOLECULE
mol_738_akc_jbmc2022117136
*****
 45 46 0 0 0
SMALL
GASTEIGER

@<TRIPOS>ATOM
      1 C          -6.8322   -1.4160    0.6291 C.ar    1  UNL1       -0.0549
      2 C          -6.0702   -0.7906   -0.3660 C.ar    1  UNL1       -0.0434
      3 C          -5.7814   -1.5040   -1.5420 C.ar    1  UNL1       -0.0131
      4 C          -6.2684   -2.8056   -1.7423 C.ar    1  UNL1        0.1615
      5 C          -7.0516   -3.3936   -0.7468 C.ar    1  UNL1        0.1585
      6 C          -7.3163   -2.7122    0.4401 C.ar    1  UNL1       -0.0163
      7 C          -5.6120    0.6407   -0.1834 C.3     1  UNL1       -0.0241
      8 C          -4.2346    0.7566    0.4791 C.3     1  UNL1       -0.0304
      9 C          -3.7484    2.1509    0.8028 C.2     1  UNL1       -0.0804
     10 C          -4.4742    3.2748    0.9259 C.2     1  UNL1       -0.0231
     11 C          -3.7998    4.5606    1.2924 C.2     1  UNL1        0.1561
     12 O          -2.5854    4.6913    1.1340 O.2     1  UNL1       -0.2927
     13 C          -4.6397    5.7224    1.7972 C.3     1  UNL1        0.0138
     14 C          -5.7580    5.3312    2.7595 C.3     1  UNL1       -0.0207
     15 C          -6.4407    6.5481    3.3430 C.ar    1  UNL1       -0.0469
     16 C          -7.5397    7.1244    2.6958 C.ar    1  UNL1       -0.0586
     17 C          -5.9579    7.1335    4.5203 C.ar    1  UNL1       -0.0586
     18 C          -6.5732    8.2730    5.0468 C.ar    1  UNL1       -0.0615
     19 C          -7.6694    8.8385    4.3993 C.ar    1  UNL1       -0.0617
     20 C          -8.1540    8.2659    3.2250 C.ar    1  UNL1       -0.0615
     21 O          -7.6575   -4.6091   -0.8855 O.3     1  UNL1       -0.5033
     22 O          -6.0108   -3.3370   -2.9777 O.3     1  UNL1       -0.4915
     23 C          -5.6222   -4.7072   -3.0197 C.3     1  UNL1        0.0790
     24 H          -7.0842   -0.8872    1.5457 H       1  UNL1        0.0621
     25 H          -5.1891   -1.0394   -2.3275 H       1  UNL1        0.0658
     26 H          -7.9426   -3.1727    1.1995 H       1  UNL1        0.0655
     27 H          -5.5992    1.1412   -1.1598 H       1  UNL1        0.0316
     28 H          -6.3689    1.1665    0.4121 H       1  UNL1        0.0316
     29 H          -4.2153    0.1767    1.4115 H       1  UNL1        0.0311
     30 H          -3.4911    0.2921   -0.1818 H       1  UNL1        0.0311
     31 H          -2.6695    2.2153    0.9605 H       1  UNL1        0.0573
     32 H          -5.5476    3.2941    0.8005 H       1  UNL1        0.0649
     33 H          -3.9504    6.4045    2.3143 H       1  UNL1        0.0348
     34 H          -5.0344    6.2628    0.9294 H       1  UNL1        0.0348
     35 H          -6.5125    4.7192    2.2531 H       1  UNL1        0.0317
     36 H          -5.3647    4.7059    3.5713 H       1  UNL1        0.0317
     37 H          -7.9288    6.6972    1.7770 H       1  UNL1        0.0620
     38 H          -5.1010    6.7102    5.0364 H       1  UNL1        0.0620
     39 H          -6.1914    8.7206    5.9600 H       1  UNL1        0.0618
     40 H          -8.1447    9.7262    4.8080 H       1  UNL1        0.0618
     41 H          -9.0063    8.7074    2.7169 H       1  UNL1        0.0618
     42 H          -7.8155   -4.7330   -1.8354 H       1  UNL1        0.2923
     43 H          -5.1164   -5.0418   -2.1087 H       1  UNL1        0.0660
     44 H          -6.4919   -5.3346   -3.2369 H       1  UNL1        0.0660
     45 H          -4.9297   -4.8293   -3.8589 H       1  UNL1        0.0660
@<TRIPOS>BOND
     1     1     2   ar
     2     1     6   ar
     3     2     3   ar
     4     3     4   ar
     5     4     5   ar
     6     5     6   ar
     7     2     7    1
     8     7     8    1
     9     8     9    1
    10     9    10    2
    11    10    11    1
    12    11    12    2
    13    11    13    1
    14    13    14    1
    15    14    15    1
    16    16    15   ar
    17    15    17   ar
    18    16    20   ar
    19    17    18   ar
    20    18    19   ar
    21    19    20   ar
    22     5    21    1
    23     4    22    1
    24    22    23    1
    25     1    24    1
    26     3    25    1
    27     6    26    1
    28     7    27    1
    29     7    28    1
    30     8    29    1
    31     8    30    1
    32     9    31    1
    33    10    32    1
    34    13    33    1
    35    13    34    1
    36    14    35    1
    37    14    36    1
    38    16    37    1
    39    17    38    1
    40    18    39    1
    41    19    40    1
    42    20    41    1
    43    21    42    1
    44    23    43    1
    45    23    44    1
    46    23    45    1
@<TRIPOS>MOLECULE
mol_739_akc_s11030_022_10569_4
Dimethyl 4-(4-fluorophenyl)-2,6-dimethyl-1,4-dihydropyridine-3,5-dicarboxylate
 41 42 0 0 0
SMALL
GASTEIGER

@<TRIPOS>ATOM
      1 N          -0.0015    0.9043   -0.0699 N.pl3   1  UNL1       -0.3207
      2 C          -1.2338    0.2808    0.0275 C.2     1  UNL1        0.0157
      3 C          -1.2971   -1.0685    0.1265 C.2     1  UNL1        0.0651
      4 C          -0.0027   -1.9148    0.1265 C.3     1  UNL1        0.0506
      5 C           1.2878   -1.0667    0.1672 C.2     1  UNL1        0.0651
      6 C           1.2286    0.2801    0.0408 C.2     1  UNL1        0.0157
      7 C          -2.6138   -1.7612    0.2241 C.2     1  UNL1        0.3373
      8 O          -3.6027   -1.2885    0.7554 O.2     1  UNL1       -0.2452
      9 O          -2.5521   -2.9824   -0.3649 O.3     1  UNL1       -0.4646
     10 C           2.5976   -1.7271    0.4091 C.2     1  UNL1        0.3373
     11 O           3.5293   -1.2046    1.0011 O.2     1  UNL1       -0.2452
     12 O           2.6175   -2.9944   -0.0793 O.3     1  UNL1       -0.4646
     13 C          -2.3881    1.2576   -0.0133 C.3     1  UNL1       -0.0260
     14 C           2.3884    1.2474   -0.0174 C.3     1  UNL1       -0.0260
     15 C          -0.0124   -3.0124    1.2010 C.ar    1  UNL1       -0.0349
     16 C          -0.0066   -4.3673    0.8055 C.ar    1  UNL1       -0.0550
     17 C           0.0381   -5.3917    1.7477 C.ar    1  UNL1       -0.0262
     18 C           0.0698   -5.0674    3.0956 C.ar    1  UNL1        0.1234
     19 C           0.0555   -3.7408    3.5145 C.ar    1  UNL1       -0.0262
     20 C           0.0109   -2.7102    2.5720 C.ar    1  UNL1       -0.0550
     21 F           0.1221   -6.0480    4.0078 F       1  UNL1       -0.2055
     22 C           3.7831   -3.7454    0.2828 C.3     1  UNL1        0.0820
     23 C          -3.7377   -3.7838   -0.2815 C.3     1  UNL1        0.0820
     24 H          -0.0018    1.9202   -0.0965 H       1  UNL1        0.1516
     25 H           0.0180   -2.4119   -0.8558 H       1  UNL1        0.0451
     26 H          -2.3529    1.9033    0.8712 H       1  UNL1        0.0290
     27 H          -2.2951    1.8981   -0.8979 H       1  UNL1        0.0290
     28 H          -3.3798    0.8099   -0.0644 H       1  UNL1        0.0290
     29 H           2.2943    1.8756   -0.9113 H       1  UNL1        0.0290
     30 H           2.3690    1.9042    0.8584 H       1  UNL1        0.0290
     31 H           3.3732    0.7864   -0.0808 H       1  UNL1        0.0290
     32 H          -0.0198   -4.6285   -0.2534 H       1  UNL1        0.0621
     33 H           0.0534   -6.4305    1.4415 H       1  UNL1        0.0646
     34 H           0.0846   -3.5163    4.5775 H       1  UNL1        0.0646
     35 H           0.0098   -1.6766    2.9111 H       1  UNL1        0.0621
     36 H           4.5318   -3.6472   -0.5076 H       1  UNL1        0.0661
     37 H           4.2086   -3.4364    1.2443 H       1  UNL1        0.0661
     38 H           3.5004   -4.7982    0.3750 H       1  UNL1        0.0661
     39 H          -4.5454   -3.3320    0.3027 H       1  UNL1        0.0661
     40 H          -4.0953   -3.9693   -1.2973 H       1  UNL1        0.0661
     41 H          -3.4774   -4.7424    0.1776 H       1  UNL1        0.0661
@<TRIPOS>BOND
     1     1     2    1
     2     2     3    2
     3     3     4    1
     4     4     5    1
     5     5     6    2
     6     1     6    1
     7     7     8    2
     8     7     9    1
     9     3     7    1
    10    10    11    2
    11    10    12    1
    12     5    10    1
    13     2    13    1
    14     6    14    1
    15    15    16   ar
    16    16    17   ar
    17    17    18   ar
    18    18    19   ar
    19    19    20   ar
    20    15    20   ar
    21    18    21    1
    22     4    15    1
    23    12    22    1
    24     9    23    1
    25     1    24    1
    26     4    25    1
    27    13    26    1
    28    13    27    1
    29    13    28    1
    30    14    29    1
    31    14    30    1
    32    14    31    1
    33    16    32    1
    34    17    33    1
    35    19    34    1
    36    20    35    1
    37    22    36    1
    38    22    37    1
    39    22    38    1
    40    23    39    1
    41    23    40    1
    42    23    41    1
@<TRIPOS>MOLECULE
mol_73_akc_acsmedchemlett8b00053
>72.sdf
 57 61 0 0 0
SMALL
GASTEIGER

@<TRIPOS>ATOM
      1 F           0.1416   -0.6153    1.1558 F       1  UNL1       -0.2055
      2 C           1.4622   -0.3919    1.1661 C.ar    1  UNL1        0.1240
      3 C           2.3284   -1.4413    0.8611 C.ar    1  UNL1       -0.0176
      4 C           3.7361   -1.2528    0.8947 C.ar    1  UNL1       -0.0004
      5 C           4.1942    0.0358    1.2063 C.ar    1  UNL1        0.0201
      6 S           5.9092    0.1217    1.1898 S.2     1  UNL1       -0.0960
      7 C           6.0587   -1.5291    0.8123 C.ar    1  UNL1       -0.0155
      8 C           4.8430   -2.1707    0.6587 C.ar    1  UNL1       -0.0031
      9 C           4.8022   -3.6096    0.3558 C.ar    1  UNL1       -0.0168
     10 C           3.8437   -4.4419    0.9452 C.ar    1  UNL1       -0.0536
     11 C           3.8375   -5.8214    0.7078 C.ar    1  UNL1       -0.0530
     12 C           4.8237   -6.4095   -0.0930 C.ar    1  UNL1       -0.0029
     13 C           4.8427   -7.8976   -0.2985 C.3     1  UNL1       -0.0077
     14 N           4.0296   -8.2760   -1.4895 N.4     1  UNL1        0.2303
     15 C           4.0219   -9.7386   -1.7986 C.3     1  UNL1       -0.0319
     16 C           3.2079  -10.0286   -3.0577 C.3     1  UNL1        0.0029
     17 C           3.8280   -9.3883   -4.2949 C.3     1  UNL1        0.0139
     18 N           3.0042   -9.6123   -5.4720 N.pl3   1  UNL1       -0.3431
     19 C           3.5305   -9.1008   -6.6965 C.ar    1  UNL1        0.0378
     20 C           4.3127   -7.9368   -6.7189 C.ar    1  UNL1       -0.0221
     21 C           4.8545   -7.5129   -7.9130 C.ar    1  UNL1        0.0300
     22 N           4.6627   -8.1420   -9.0810 N.ar    1  UNL1       -0.2548
     23 C           3.8300   -9.1921   -9.1045 C.ar    1  UNL1        0.0741
     24 C           3.1911   -9.6953   -7.9429 C.ar    1  UNL1        0.0213
     25 C           2.2623  -10.7566   -8.1019 C.ar    1  UNL1       -0.0494
     26 C           2.0183  -11.3228   -9.3531 C.ar    1  UNL1       -0.0426
     27 C           2.7043  -10.8462  -10.4599 C.ar    1  UNL1        0.0430
     28 CL          2.4352  -11.5545  -12.0035 Cl      1  UNL1       -0.0835
     29 C           3.5986   -9.7891  -10.3299 C.ar    1  UNL1       -0.0173
     30 C           5.7713   -5.5825   -0.7086 C.ar    1  UNL1       -0.0530
     31 C           5.7543   -4.1987   -0.4912 C.ar    1  UNL1       -0.0536
     32 C           3.3116    1.1005    1.4922 C.ar    1  UNL1       -0.0447
     33 C           1.9379    0.8660    1.4781 C.ar    1  UNL1       -0.0254
     34 H           1.8916   -2.3996    0.6033 H       1  UNL1        0.0653
     35 H           7.0535   -1.9454    0.7311 H       1  UNL1        0.0700
     36 H           3.1048   -4.0360    1.6331 H       1  UNL1        0.0624
     37 H           3.0716   -6.4229    1.1948 H       1  UNL1        0.0622
     38 H           5.8659   -8.2527   -0.4711 H       1  UNL1        0.0866
     39 H           4.4304   -8.4254    0.5662 H       1  UNL1        0.0866
     40 H           3.0680   -7.9378   -1.3448 H       1  UNL1        0.2017
     41 H           4.3965   -7.7200   -2.2704 H       1  UNL1        0.2017
     42 H           5.0629  -10.0572   -1.9160 H       1  UNL1        0.0814
     43 H           3.5823  -10.2443   -0.9328 H       1  UNL1        0.0814
     44 H           3.1564  -11.1167   -3.2016 H       1  UNL1        0.0332
     45 H           2.1756   -9.6838   -2.9259 H       1  UNL1        0.0332
     46 H           3.8983   -8.3117   -4.1144 H       1  UNL1        0.0463
     47 H           4.8388   -9.7849   -4.4491 H       1  UNL1        0.0463
     48 H           2.7770  -10.5986   -5.5967 H       1  UNL1        0.1461
     49 H           4.5175   -7.3462   -5.8390 H       1  UNL1        0.0651
     50 H           5.4824   -6.6249   -7.9620 H       1  UNL1        0.0830
     51 H           1.6920  -11.1339   -7.2581 H       1  UNL1        0.0625
     52 H           1.2943  -12.1273   -9.4565 H       1  UNL1        0.0632
     53 H           4.1220   -9.4096  -11.2045 H       1  UNL1        0.0653
     54 H           6.5576   -5.9919   -1.3423 H       1  UNL1        0.0622
     55 H           6.5127   -3.5859   -0.9779 H       1  UNL1        0.0624
     56 H           3.6968    2.0896    1.7281 H       1  UNL1        0.0630
     57 H           1.2401    1.6661    1.7066 H       1  UNL1        0.0646
@<TRIPOS>UNITY_ATOM_ATTR
14 1
charge 1
@<TRIPOS>BOND
     1     2     1    1
     2     3     2   ar
     3     3    34    1
     4     4     3   ar
     5     5     4   ar
     6     6     5   ar
     7     7     6   ar
     8     7    35    1
     9     8     7   ar
    10     8     4   ar
    11     9     8    1
    12    10     9   ar
    13    10    36    1
    14    11    10   ar
    15    11    37    1
    16    12    11   ar
    17    13    12    1
    18    13    38    1
    19    13    39    1
    20    14    13    1
    21    14    40    1
    22    14    41    1
    23    15    14    1
    24    15    42    1
    25    15    43    1
    26    16    15    1
    27    16    44    1
    28    16    45    1
    29    17    16    1
    30    17    46    1
    31    17    47    1
    32    18    17    1
    33    18    48    1
    34    19    18    1
    35    20    19   ar
    36    20    49    1
    37    21    20   ar
    38    21    50    1
    39    22    21   ar
    40    23    22   ar
    41    24    23   ar
    42    24    19   ar
    43    25    24   ar
    44    25    51    1
    45    26    25   ar
    46    26    52    1
    47    27    26   ar
    48    28    27    1
    49    29    27   ar
    50    29    23   ar
    51    29    53    1
    52    30    12   ar
    53    30    54    1
    54    31    30   ar
    55    31     9   ar
    56    31    55    1
    57    32     5   ar
    58    32    56    1
    59    33    32   ar
    60    33     2   ar
    61    33    57    1
@<TRIPOS>MOLECULE
mol_740_akc_jejmech2022115049
Ethyl 4-[2-(3,4-dichlorobenzamido)thiazolo [5,4-d]pyrimidin-5-yl]piperazine-1- carboxylate
 49 52 0 0 0
SMALL
GASTEIGER

@<TRIPOS>ATOM
      1 C          -0.6467    0.1852   -1.9961 C.3     1  UNL1        0.0337
      2 C          -1.0206    0.9642   -0.7188 C.3     1  UNL1        0.0308
      3 N          -1.3325    0.0373    0.3734 N.pl3   1  UNL1       -0.2966
      4 C          -0.3367   -0.9918    0.6626 C.3     1  UNL1        0.0308
      5 C          -0.0102   -1.7733   -0.6235 C.3     1  UNL1        0.0337
      6 N           0.3353   -0.8697   -1.7227 N.am    1  UNL1       -0.2644
      7 C           1.4500   -1.1209   -2.4928 C.2     1  UNL1        0.4029
      8 O           2.1969   -2.0726   -2.3163 O.2     1  UNL1       -0.2263
      9 O           1.6424   -0.1781   -3.4563 O.3     1  UNL1       -0.4505
     10 N          -3.3180    1.1505    0.7972 N.ar    1  UNL1       -0.2054
     11 C          -2.4617    0.1844    1.1356 C.ar    1  UNL1        0.2190
     12 N          -2.6797   -0.6837    2.1474 N.ar    1  UNL1       -0.2206
     13 C          -3.8452   -0.6479    2.8462 C.ar    1  UNL1        0.0592
     14 S          -5.7383    2.2018    1.1445 S.2     1  UNL1       -0.0322
     15 C          -6.7234    1.3452    2.2430 C.ar    1  UNL1        0.1672
     16 N          -6.1235    0.4256    2.9699 N.ar    1  UNL1       -0.2214
     17 C          -4.8298    0.2640    2.4929 C.ar    1  UNL1        0.1168
     18 C          -4.4687    1.1304    1.4782 C.ar    1  UNL1        0.1346
     19 C         -10.2994    2.3219    1.7447 C.ar    1  UNL1        0.0385
     20 C         -10.8099    2.3161    3.0465 C.ar    1  UNL1       -0.0298
     21 C         -12.1948    2.2859    3.2505 C.ar    1  UNL1        0.0600
     22 C         -13.0710    2.2795    2.1572 C.ar    1  UNL1        0.0593
     23 C         -12.5594    2.3263    0.8584 C.ar    1  UNL1       -0.0413
     24 C         -11.1788    2.3507    0.6528 C.ar    1  UNL1       -0.0482
     25 C          -8.8368    2.3065    1.4680 C.2     1  UNL1        0.2497
     26 N          -8.0703    1.5981    2.3708 N.am    1  UNL1       -0.2606
     27 O          -8.4584    2.8574    0.4419 O.2     1  UNL1       -0.2698
     28 CL        -12.7562    2.2467    4.8844 Cl      1  UNL1       -0.0820
     29 CL        -14.7859    2.2071    2.3434 Cl      1  UNL1       -0.0820
     30 C           2.7963   -0.3666   -4.2897 C.3     1  UNL1        0.0913
     31 C           4.0525    0.1340   -3.5983 C.3     1  UNL1       -0.0305
     32 H          -1.5365   -0.3141   -2.3989 H       1  UNL1        0.0481
     33 H          -0.2896    0.8812   -2.7605 H       1  UNL1        0.0481
     34 H          -1.8416    1.6454   -0.9679 H       1  UNL1        0.0480
     35 H          -0.1714    1.5867   -0.4114 H       1  UNL1        0.0480
     36 H           0.5720   -0.5001    1.0309 H       1  UNL1        0.0480
     37 H          -0.6507   -1.7057    1.4313 H       1  UNL1        0.0480
     38 H          -0.8858   -2.3491   -0.9467 H       1  UNL1        0.0481
     39 H           0.7995   -2.4827   -0.4270 H       1  UNL1        0.0481
     40 H          -3.9679   -1.3819    3.6318 H       1  UNL1        0.0853
     41 H         -10.1455    2.3560    3.9056 H       1  UNL1        0.0640
     42 H         -13.2282    2.3378    0.0001 H       1  UNL1        0.0633
     43 H         -10.7897    2.3831   -0.3650 H       1  UNL1        0.0625
     44 H          -8.5115    1.0236    3.0743 H       1  UNL1        0.1571
     45 H           2.8939   -1.4154   -4.5934 H       1  UNL1        0.0695
     46 H           2.6269    0.2160   -5.2009 H       1  UNL1        0.0695
     47 H           4.2722   -0.4530   -2.7009 H       1  UNL1        0.0262
     48 H           4.9139    0.0710   -4.2692 H       1  UNL1        0.0262
     49 H           3.9286    1.1728   -3.2761 H       1  UNL1        0.0262
@<TRIPOS>BOND
     1     1     2    1
     2     2     3    1
     3     3     4    1
     4     4     5    1
     5     5     6    1
     6     1     6    1
     7     7     8    2
     8     7     9    1
     9     6     7   am
    10    18    10   ar
    11    10    11   ar
    12    11    12   ar
    13    12    13   ar
    14    17    13   ar
    15    14    15   ar
    16    15    16   ar
    17    16    17   ar
    18    17    18   ar
    19    14    18   ar
    20    19    20   ar
    21    20    21   ar
    22    21    22   ar
    23    22    23   ar
    24    23    24   ar
    25    19    24   ar
    26    25    26   am
    27    25    27    2
    28    19    25    1
    29    21    28    1
    30    22    29    1
    31    15    26    1
    32     3    11    1
    33    30    31    1
    34     9    30    1
    35     1    32    1
    36     1    33    1
    37     2    34    1
    38     2    35    1
    39     4    36    1
    40     4    37    1
    41     5    38    1
    42     5    39    1
    43    13    40    1
    44    20    41    1
    45    23    42    1
    46    24    43    1
    47    26    44    1
    48    30    45    1
    49    30    46    1
    50    31    47    1
    51    31    48    1
    52    31    49    1
@<TRIPOS>MOLECULE
mol_741_akc_jejmech2022115049
4-Chloro-3-nitro-N-[5-(dimethylamino)thiazolo [5,4-d]pyrimidin-2-yl]benzamide
 36 38 0 0 0
SMALL
GASTEIGER

@<TRIPOS>ATOM
      1 C           4.5985   -1.1642    0.1946 C.ar    1  UNL1        0.0436
      2 C           5.9759   -1.3070    0.0069 C.ar    1  UNL1        0.0292
      3 C           6.4983   -2.5846   -0.2681 C.ar    1  UNL1        0.2920
      4 C           5.6931   -3.7231   -0.3340 C.ar    1  UNL1        0.1178
      5 C           4.3200   -3.5730   -0.1386 C.ar    1  UNL1       -0.0361
      6 C           3.7790   -2.3064    0.1195 C.ar    1  UNL1       -0.0478
      7 C           3.9443    0.1444    0.5107 C.2     1  UNL1        0.2499
      8 O           2.8673    0.1075    1.0935 O.2     1  UNL1       -0.2698
      9 N           4.5863    1.2770    0.0511 N.am    1  UNL1       -0.2606
     10 N           3.3206    6.0198   -0.8284 N.ar    1  UNL1       -0.2054
     11 C           2.2646    6.6914   -0.3450 C.ar    1  UNL1        0.2184
     12 N           1.4827    6.2358    0.6596 N.ar    1  UNL1       -0.2206
     13 C           1.6901    5.0027    1.1851 C.ar    1  UNL1        0.0592
     14 S           4.7190    3.7281   -0.7874 S.2     1  UNL1       -0.0322
     15 C           4.0280    2.5224    0.2109 C.ar    1  UNL1        0.1672
     16 N           3.0401    2.8960    0.9849 N.ar    1  UNL1       -0.2214
     17 C           2.7060    4.2046    0.6821 C.ar    1  UNL1        0.1168
     18 C           3.4836    4.8004   -0.2949 C.ar    1  UNL1        0.1346
     19 N           1.9123    7.8873   -0.9348 N.pl3   1  UNL1       -0.3057
     20 C           2.6872    8.4428   -2.0207 C.3     1  UNL1        0.0030
     21 C           0.9306    8.7227   -0.2728 C.3     1  UNL1        0.0030
     22 N           7.9224   -2.6880   -0.4988 N.pl3   1  UNL1        0.0811
     23 O           8.6609   -2.3637    0.4410 O.2     1  UNL1        0.0415
     24 O           8.2882   -3.0062   -1.6345 O.co2   1  UNL1       -0.5760
     25 CL          6.3013   -5.3138   -0.5982 Cl      1  UNL1       -0.0765
     26 H           6.6508   -0.4598    0.0981 H       1  UNL1        0.0693
     27 H           3.6575   -4.4360   -0.1760 H       1  UNL1        0.0634
     28 H           2.7027   -2.2150    0.2726 H       1  UNL1        0.0626
     29 H           5.3636    1.2238   -0.5879 H       1  UNL1        0.1571
     30 H           1.0117    4.6761    1.9630 H       1  UNL1        0.0853
     31 H           2.0095    8.8346   -2.7909 H       1  UNL1        0.0428
     32 H           3.3077    9.2705   -1.6661 H       1  UNL1        0.0428
     33 H           3.3352    7.7178   -2.5240 H       1  UNL1        0.0428
     34 H          -0.0542    8.2437   -0.2670 H       1  UNL1        0.0428
     35 H           1.2275    8.9487    0.7581 H       1  UNL1        0.0428
     36 H           0.8174    9.6816   -0.7922 H       1  UNL1        0.0428
@<TRIPOS>UNITY_ATOM_ATTR
22 1
charge 1
24 1
charge -1
@<TRIPOS>BOND
     1     1     2   ar
     2     2     3   ar
     3     3     4   ar
     4     4     5   ar
     5     5     6   ar
     6     1     6   ar
     7     7     8    2
     8     7     9   am
     9     1     7    1
    10    18    10   ar
    11    10    11   ar
    12    11    12   ar
    13    12    13   ar
    14    17    13   ar
    15    14    15   ar
    16    15    16   ar
    17    16    17   ar
    18    17    18   ar
    19    14    18   ar
    20    19    20    1
    21    19    21    1
    22    11    19    1
    23     9    15    1
    24    22    23    2
    25    22    24    1
    26     3    22    1
    27     4    25    1
    28     2    26    1
    29     5    27    1
    30     6    28    1
    31     9    29    1
    32    13    30    1
    33    20    31    1
    34    20    32    1
    35    20    33    1
    36    21    34    1
    37    21    35    1
    38    21    36    1
@<TRIPOS>MOLECULE
mol_742_akc_fcimb2022974910
*****
 43 44 0 0 0
SMALL
GASTEIGER

@<TRIPOS>ATOM
      1 C          -2.0283   -0.1661    1.7420 C.ar    1  UNL1        0.1315
      2 C          -1.2947    0.6926    2.5652 C.ar    1  UNL1       -0.0163
      3 C           0.0835    0.5238    2.6999 C.ar    1  UNL1       -0.0435
      4 C           0.7152   -0.5092    1.9913 C.ar    1  UNL1       -0.0161
      5 C          -0.0069   -1.3659    1.1396 C.ar    1  UNL1        0.1347
      6 C          -1.4007   -1.2088    1.0288 C.ar    1  UNL1        0.1052
      7 O          -3.3856    0.0031    1.6724 O.3     1  UNL1       -0.5059
      8 C           0.8880    1.4088    3.6050 C.3     1  UNL1       -0.0395
      9 O           0.5794   -2.3781    0.4168 O.3     1  UNL1       -0.4943
     10 C           2.0030   -2.3934    0.3623 C.3     1  UNL1        0.0788
     11 C          -2.2354   -2.0546    0.1227 C.2     1  UNL1        0.2045
     12 O          -2.9523   -1.4394   -0.6677 O.2     1  UNL1       -0.2863
     13 C          -2.2213   -3.5653    0.1015 C.ar    1  UNL1        0.0782
     14 C          -1.7694   -4.3640    1.1729 C.ar    1  UNL1        0.0767
     15 C          -2.7070   -4.2515   -1.0530 C.ar    1  UNL1        0.1352
     16 C          -2.6556   -5.6542   -1.1370 C.ar    1  UNL1        0.0223
     17 C          -2.1532   -6.3978   -0.0834 C.ar    1  UNL1        0.1212
     18 C          -1.7201   -5.7678    1.0695 C.ar    1  UNL1       -0.0053
     19 C          -1.4219   -3.8296    2.4986 C.2     1  UNL1        0.3399
     20 O          -2.1525   -3.1159    3.1616 O.2     1  UNL1       -0.2449
     21 O          -0.2065   -4.3036    2.8646 O.3     1  UNL1       -0.4644
     22 O          -3.1527   -3.5332   -2.1392 O.3     1  UNL1       -0.4943
     23 C          -4.2696   -4.0795   -2.8409 C.3     1  UNL1        0.0788
     24 O          -2.0795   -7.7560   -0.1378 O.3     1  UNL1       -0.5066
     25 C           0.2664   -3.8934    4.1496 C.3     1  UNL1        0.0820
     26 H          -1.7945    1.4856    3.1135 H       1  UNL1        0.0657
     27 H           1.7850   -0.6233    2.1315 H       1  UNL1        0.0657
     28 H          -3.6357    0.8336    2.1043 H       1  UNL1        0.2922
     29 H           1.2925    0.8269    4.4388 H       1  UNL1        0.0278
     30 H           1.7144    1.8657    3.0507 H       1  UNL1        0.0278
     31 H           0.2799    2.2198    4.0219 H       1  UNL1        0.0278
     32 H           2.3826   -1.4837   -0.1150 H       1  UNL1        0.0660
     33 H           2.4454   -2.5334    1.3543 H       1  UNL1        0.0660
     34 H           2.3076   -3.2479   -0.2490 H       1  UNL1        0.0660
     35 H          -2.9812   -6.1665   -2.0349 H       1  UNL1        0.0691
     36 H          -1.3597   -6.3755    1.8955 H       1  UNL1        0.0662
     37 H          -3.9574   -4.9074   -3.4870 H       1  UNL1        0.0660
     38 H          -5.0656   -4.4024   -2.1582 H       1  UNL1        0.0660
     39 H          -4.6787   -3.3029   -3.4918 H       1  UNL1        0.0660
     40 H          -2.4085   -8.0613   -0.9992 H       1  UNL1        0.2921
     41 H           0.9458   -3.0486    4.0131 H       1  UNL1        0.0661
     42 H          -0.5387   -3.6246    4.8376 H       1  UNL1        0.0661
     43 H           0.8267   -4.7242    4.5872 H       1  UNL1        0.0661
@<TRIPOS>BOND
     1     1     2   ar
     2     2     3   ar
     3     3     4   ar
     4     4     5   ar
     5     5     6   ar
     6     1     6   ar
     7     1     7    1
     8     3     8    1
     9     5     9    1
    10     9    10    1
    11     6    11    1
    12    11    12    2
    13    11    13    1
    14    14    13   ar
    15    13    15   ar
    16    15    16   ar
    17    16    17   ar
    18    17    18   ar
    19    14    18   ar
    20    14    19    1
    21    19    20    2
    22    19    21    1
    23    15    22    1
    24    22    23    1
    25    17    24    1
    26    21    25    1
    27     2    26    1
    28     4    27    1
    29     7    28    1
    30     8    29    1
    31     8    30    1
    32     8    31    1
    33    10    32    1
    34    10    33    1
    35    10    34    1
    36    16    35    1
    37    18    36    1
    38    23    37    1
    39    23    38    1
    40    23    39    1
    41    24    40    1
    42    25    41    1
    43    25    42    1
    44    25    43    1
@<TRIPOS>MOLECULE
mol_743_akc_biomedicines11010219
4-Amino-2-(3-fluorophenyl)-1,2-dihydropyrimido[1,2-a]benzimidazole-3-carbonitrile
 35 38 0 0 0
SMALL
GASTEIGER

@<TRIPOS>ATOM
      1 C           0.7113    0.5925    0.0375 C.ar    1  UNL1        0.0763
      2 N          -0.0260   -1.5718   -0.0568 N.ar    1  UNL1       -0.2141
      3 C           1.0721   -0.7558   -0.0127 C.ar    1  UNL1        0.0913
      4 C           2.4309   -1.1152   -0.0197 C.ar    1  UNL1       -0.0342
      5 C           3.4035   -0.1110   -0.0026 C.ar    1  UNL1       -0.0596
      6 C           3.0326    1.2289    0.0357 C.ar    1  UNL1       -0.0597
      7 C           1.6857    1.6062    0.0728 C.ar    1  UNL1       -0.0356
      8 C          -2.9509    1.2791    0.1368 C.2     1  UNL1        0.0919
      9 C          -3.4370   -0.1547   -0.0456 C.3     1  UNL1        0.0868
     10 N          -2.3502   -1.1147   -0.1199 N.pl3   1  UNL1       -0.3029
     11 C          -1.0515   -0.7622   -0.0439 C.ar    1  UNL1        0.2029
     12 N          -0.6821    0.5789    0.0489 N.ar    1  UNL1       -0.2674
     13 C          -1.6389    1.6262    0.1383 C.2     1  UNL1        0.1190
     14 C          -3.9649    2.2749    0.2469 C.1     1  UNL1        0.1004
     15 N          -4.7771    3.1043    0.3108 N.1     1  UNL1       -0.1910
     16 C          -4.3005   -0.2710   -1.2991 C.ar    1  UNL1       -0.0193
     17 C          -3.7688    0.0291   -2.5665 C.ar    1  UNL1       -0.0212
     18 C          -4.6061    0.1160   -3.6728 C.ar    1  UNL1        0.1237
     19 C          -5.9692   -0.1218   -3.5590 C.ar    1  UNL1       -0.0264
     20 C          -6.5038   -0.4706   -2.3202 C.ar    1  UNL1       -0.0587
     21 C          -5.6760   -0.5448   -1.1953 C.ar    1  UNL1       -0.0563
     22 F          -4.0937    0.4714   -4.8580 F       1  UNL1       -0.2055
     23 N          -1.1946    2.9472    0.2252 N.pl3   1  UNL1       -0.3433
     24 H           2.7130   -2.1624   -0.0457 H       1  UNL1        0.0639
     25 H           4.4570   -0.3807   -0.0170 H       1  UNL1        0.0618
     26 H           3.8015    1.9999    0.0460 H       1  UNL1        0.0618
     27 H           1.4389    2.6584    0.1347 H       1  UNL1        0.0639
     28 H          -4.0382   -0.4211    0.8340 H       1  UNL1        0.0607
     29 H          -2.5900   -2.0997   -0.1537 H       1  UNL1        0.1498
     30 H          -2.7108    0.2399   -2.6969 H       1  UNL1        0.0650
     31 H          -6.6060   -0.0237   -4.4324 H       1  UNL1        0.0646
     32 H          -7.5712   -0.6568   -2.2247 H       1  UNL1        0.0619
     33 H          -6.1253   -0.7801   -0.2316 H       1  UNL1        0.0621
     34 H          -0.4056    3.1367   -0.3869 H       1  UNL1        0.1437
     35 H          -1.9169    3.6524    0.0731 H       1  UNL1        0.1437
@<TRIPOS>BOND
     1     1    12   ar
     2    11     2   ar
     3     2     3   ar
     4     1     3   ar
     5     3     4   ar
     6     4     5   ar
     7     5     6   ar
     8     6     7   ar
     9     1     7   ar
    10     8     9    1
    11     9    10    1
    12    10    11    1
    13    11    12   ar
    14    12    13    1
    15     8    13    2
    16    14    15    3
    17     8    14    1
    18    16    17   ar
    19    17    18   ar
    20    18    19   ar
    21    19    20   ar
    22    20    21   ar
    23    16    21   ar
    24    18    22    1
    25    13    23    1
    26     4    24    1
    27     5    25    1
    28     6    26    1
    29     7    27    1
    30    10    29    1
    31    17    30    1
    32    19    31    1
    33    20    32    1
    34    21    33    1
    35    23    34    1
    36    23    35    1
    37     9    28    1
    38     9    16    1
@<TRIPOS>MOLECULE
mol_744_akc_m1573
6-chloro-3-nitro-2-[(phenylsulfonyl)methyl]imidazo[1,2-b]pyridazine
 32 34 0 0 0
SMALL
GASTEIGER

@<TRIPOS>ATOM
      1 N          -0.9086   -1.3224   -0.5845 N.ar    1  UNL1       -0.1481
      2 C          -0.8795    1.1744    0.8124 C.ar    1  UNL1       -0.0143
      3 C          -2.0429    0.5872    0.5098 C.ar    1  UNL1       -0.0196
      4 C          -1.9892   -0.7135   -0.2085 C.ar    1  UNL1        0.1502
      5 N           0.2377   -0.6756   -0.2238 N.ar    1  UNL1       -0.1504
      6 C           0.3269    0.5374    0.4520 C.ar    1  UNL1        0.1613
      7 N           1.5787    0.9117    0.6303 N.ar    1  UNL1       -0.2224
      8 C           2.3536   -0.0909    0.0779 C.ar    1  UNL1        0.1623
      9 C           1.5266   -1.0430   -0.4751 C.ar    1  UNL1        0.3932
     10 C           3.8362    0.0135    0.1080 C.3     1  UNL1        0.1211
     11 S           4.5413   -0.7752    1.5519 S.O2    1  UNL1        0.0027
     12 O           4.0703   -0.1155    2.7578 O.2     1  UNL1       -0.1690
     13 O           4.4097   -2.2123    1.4009 O.2     1  UNL1       -0.1690
     14 C           6.2701   -0.3810    1.3899 C.ar    1  UNL1        0.0886
     15 C           6.7802    0.7569    2.0222 C.ar    1  UNL1       -0.0369
     16 C           8.1240    1.0897    1.8524 C.ar    1  UNL1       -0.0600
     17 C           8.9491    0.2835    1.0661 C.ar    1  UNL1       -0.0616
     18 C           8.4403   -0.8690    0.4642 C.ar    1  UNL1       -0.0600
     19 C           7.0981   -1.2113    0.6299 C.ar    1  UNL1       -0.0369
     20 N           1.8373   -2.1700   -1.2571 N.pl3   1  UNL1        0.1026
     21 O           1.3603   -3.2547   -0.9184 O.2     1  UNL1        0.0432
     22 O           2.6057   -1.9652   -2.2059 O.co2   1  UNL1       -0.5746
     23 CL         -3.4702   -1.5069   -0.6010 Cl      1  UNL1       -0.0602
     24 H          -0.8357    2.1286    1.3255 H       1  UNL1        0.0655
     25 H          -3.0051    1.0183    0.7512 H       1  UNL1        0.0649
     26 H           4.2859   -0.4585   -0.7701 H       1  UNL1        0.0572
     27 H           4.1370    1.0653    0.1311 H       1  UNL1        0.0572
     28 H           6.1463    1.3858    2.6442 H       1  UNL1        0.0636
     29 H           8.5309    1.9756    2.3346 H       1  UNL1        0.0618
     30 H           9.9953    0.5488    0.9307 H       1  UNL1        0.0618
     31 H           9.0935   -1.5023   -0.1321 H       1  UNL1        0.0618
     32 H           6.7133   -2.1180    0.1680 H       1  UNL1        0.0636
@<TRIPOS>UNITY_ATOM_ATTR
20 1
charge 1
22 1
charge -1
@<TRIPOS>BOND
     1     1     5   ar
     2     6     2   ar
     3     2     3   ar
     4     3     4   ar
     5     1     4   ar
     6     5     6   ar
     7     6     7   ar
     8     7     8   ar
     9     8     9   ar
    10     5     9   ar
    11    11    12    2
    12    11    13    2
    13    14    15   ar
    14    15    16   ar
    15    16    17   ar
    16    17    18   ar
    17    18    19   ar
    18    14    19   ar
    19    11    14    1
    20    10    11    1
    21     8    10    1
    22    20    21    2
    23    20    22    1
    24     9    20    1
    25     4    23    1
    26     2    24    1
    27     3    25    1
    28    10    26    1
    29    10    27    1
    30    15    28    1
    31    16    29    1
    32    17    30    1
    33    18    31    1
    34    19    32    1
@<TRIPOS>MOLECULE
mol_745_akc_jbjid2023102743
*****
 35 38 0 0 0
SMALL
GASTEIGER

@<TRIPOS>ATOM
      1 C           0.9464    0.0284   -0.0376 C.3     1  UNL1       -0.0252
      2 C           0.6847   -1.2141    0.8244 C.3     1  UNL1        0.1051
      3 C           0.9860   -2.4796    0.0106 C.3     1  UNL1       -0.0092
      4 C           0.6192   -3.7302    0.8034 C.3     1  UNL1       -0.0172
      5 C          -0.6927   -3.5411    1.4963 C.2     1  UNL1        0.0407
      6 C          -1.3221   -2.3507    1.5769 C.2     1  UNL1        0.1437
      7 O          -0.7119   -1.1668    1.1768 O.2     1  UNL1       -0.4867
      8 C          -2.7388   -2.2626    2.0324 C.3     1  UNL1        0.1751
      9 C          -3.5315   -1.0032    1.7382 C.3     1  UNL1        0.0898
     10 O          -3.7836   -2.2072    1.0227 O.3     1  UNL1       -0.3550
     11 C          -3.0587   -3.2516    3.1332 C.ar    1  UNL1        0.0045
     12 C          -4.0184   -3.0374    4.1389 C.ar    1  UNL1       -0.0547
     13 C          -4.3574   -4.0455    5.0488 C.ar    1  UNL1       -0.0614
     14 C          -3.7394   -5.2912    4.9783 C.ar    1  UNL1       -0.0611
     15 C          -2.7596   -5.5219    4.0163 C.ar    1  UNL1       -0.0506
     16 C          -2.4171   -4.5064    3.1137 C.ar    1  UNL1        0.0284
     17 C          -1.3233   -4.7380    2.1299 C.2     1  UNL1        0.1928
     18 O          -0.8832   -5.8671    1.9306 O.2     1  UNL1       -0.2869
     19 C           1.5477   -1.1113    2.0928 C.3     1  UNL1       -0.0252
     20 H           0.6599    0.9414    0.4982 H       1  UNL1        0.0268
     21 H           0.3418    0.0066   -0.9512 H       1  UNL1        0.0268
     22 H           2.0012    0.1101   -0.3203 H       1  UNL1        0.0268
     23 H           0.3798   -2.4683   -0.9071 H       1  UNL1        0.0307
     24 H           2.0361   -2.5199   -0.2999 H       1  UNL1        0.0307
     25 H           0.5685   -4.5796    0.1119 H       1  UNL1        0.0317
     26 H           1.3989   -3.9567    1.5395 H       1  UNL1        0.0317
     27 H          -3.0730   -0.1989    1.1742 H       1  UNL1        0.0597
     28 H          -4.2917   -0.6621    2.4254 H       1  UNL1        0.0597
     29 H          -4.5388   -2.0854    4.2065 H       1  UNL1        0.0622
     30 H          -5.1212   -3.8618    5.8017 H       1  UNL1        0.0618
     31 H          -4.0189   -6.0809    5.6717 H       1  UNL1        0.0618
     32 H          -2.2619   -6.4883    3.9698 H       1  UNL1        0.0625
     33 H           2.6151   -1.1581    1.8495 H       1  UNL1        0.0268
     34 H           1.3560   -0.1694    2.6189 H       1  UNL1        0.0268
     35 H           1.3265   -1.9066    2.8115 H       1  UNL1        0.0268
@<TRIPOS>BOND
     1     1     2    1
     2     2     3    1
     3     3     4    1
     4     4     5    1
     5     5     6    2
     6     6     7    1
     7     2     7    1
     8     6     8    1
     9     8     9    1
    10     9    10    1
    11     8    10    1
    12     8    11    1
    13    11    12   ar
    14    12    13   ar
    15    13    14   ar
    16    14    15   ar
    17    15    16   ar
    18    11    16   ar
    19    16    17    1
    20     5    17    1
    21    17    18    2
    22     2    19    1
    23     1    20    1
    24     1    21    1
    25     1    22    1
    26     3    23    1
    27     3    24    1
    28     4    25    1
    29     4    26    1
    30     9    27    1
    31     9    28    1
    32    12    29    1
    33    13    30    1
    34    14    31    1
    35    15    32    1
    36    19    33    1
    37    19    34    1
    38    19    35    1
@<TRIPOS>MOLECULE
mol_746_akc_jejmech2023115223
*****
 28 29 0 0 0
SMALL
GASTEIGER

@<TRIPOS>ATOM
      1 C           1.8299    1.5346    0.3562 C.ar    1  UNL1        0.0830
      2 C           0.6066    0.9235   -0.1324 C.ar    1  UNL1       -0.0180
      3 C           0.8196   -0.4301   -0.3736 C.ar    1  UNL1       -0.0040
      4 S           2.4569   -0.8807   -0.1312 S.2     1  UNL1       -0.0774
      5 C           2.9039    0.6727    0.3998 C.ar    1  UNL1        0.0810
      6 C          -0.1469   -1.5112   -0.7663 C.3     1  UNL1       -0.0211
      7 C          -1.0709   -1.9136    0.3836 C.3     1  UNL1       -0.0486
      8 C          -1.8076   -0.7784    1.0973 C.3     1  UNL1       -0.0527
      9 C          -0.6776    1.7242   -0.2563 C.3     1  UNL1       -0.0256
     10 C          -1.9271    1.0324   -0.7916 C.3     1  UNL1       -0.0490
     11 C          -2.6576    0.1162    0.1974 C.3     1  UNL1       -0.0528
     12 C           1.9326    2.9063    0.7775 C.1     1  UNL1        0.1018
     13 N           2.0010    4.0115    1.1300 N.1     1  UNL1       -0.1908
     14 N           4.1696    0.9127    0.7991 N.pl3   1  UNL1       -0.3516
     15 H          -0.7210   -1.2218   -1.6500 H       1  UNL1        0.0318
     16 H           0.3940   -2.4126   -1.0893 H       1  UNL1        0.0318
     17 H          -0.4824   -2.4538    1.1372 H       1  UNL1        0.0269
     18 H          -1.8081   -2.6312    0.0029 H       1  UNL1        0.0269
     19 H          -1.1068   -0.1756    1.6859 H       1  UNL1        0.0265
     20 H          -2.4726   -1.2352    1.8419 H       1  UNL1        0.0265
     21 H          -0.4606    2.5630   -0.9326 H       1  UNL1        0.0314
     22 H          -0.9110    2.1686    0.7201 H       1  UNL1        0.0314
     23 H          -1.7160    0.5163   -1.7318 H       1  UNL1        0.0268
     24 H          -2.6440    1.8163   -1.0745 H       1  UNL1        0.0268
     25 H          -3.3731   -0.5018   -0.3590 H       1  UNL1        0.0265
     26 H          -3.2620    0.7554    0.8542 H       1  UNL1        0.0265
     27 H           4.8787    0.1885    0.7385 H       1  UNL1        0.1428
     28 H           4.5030    1.8249    1.0971 H       1  UNL1        0.1428
@<TRIPOS>BOND
     1     1     2   ar
     2     1     5   ar
     3     2     3   ar
     4     3     4   ar
     5     4     5   ar
     6     3     6    1
     7     6     7    1
     8     7     8    1
     9     9    10    1
    10    10    11    1
    11    11     8    1
    12     9     2    1
    13     1    12    1
    14    12    13    3
    15     5    14    1
    16     6    15    1
    17     6    16    1
    18     7    17    1
    19     7    18    1
    20     8    19    1
    21     8    20    1
    22     9    21    1
    23     9    22    1
    24    10    23    1
    25    10    24    1
    26    11    25    1
    27    11    26    1
    28    14    27    1
    29    14    28    1
@<TRIPOS>MOLECULE
mol_747_akc_jejmech2023115223
*****
 27 29 0 0 0
SMALL
GASTEIGER

@<TRIPOS>ATOM
      1 C          -1.1732   -0.2019   -0.1984 C.ar    1  UNL1        0.0843
      2 C          -0.9720   -1.5120    0.3355 C.ar    1  UNL1       -0.0352
      3 C          -1.3597   -1.6002    1.6498 C.ar    1  UNL1       -0.0210
      4 S          -1.9496   -0.1128    2.2371 S.2     1  UNL1       -0.0764
      5 C          -1.6802    0.7004    0.7287 C.ar    1  UNL1        0.1184
      6 C          -0.8819    0.1248   -1.5602 C.1     1  UNL1        0.1018
      7 N          -0.6108    0.4044   -2.6520 N.1     1  UNL1       -0.1908
      8 N          -2.0524    2.0121    0.6806 N.2     1  UNL1       -0.2465
      9 C          -1.3448    2.8396   -0.0158 C.2     1  UNL1        0.0380
     10 C          -1.7263    4.2400   -0.0552 C.ar    1  UNL1        0.0181
     11 N          -2.7714    6.1596    0.4012 N.ar    1  UNL1       -0.3600
     12 C          -2.7233    4.8268    0.7019 C.ar    1  UNL1        0.0113
     13 C          -1.1599    5.2789   -0.8664 C.ar    1  UNL1        0.0093
     14 C          -1.8336    6.4637   -0.5580 C.ar    1  UNL1        0.0472
     15 C          -1.5417    7.6894   -1.1696 C.ar    1  UNL1       -0.0367
     16 C          -0.5358    7.7073   -2.1393 C.ar    1  UNL1       -0.0458
     17 C           0.1488    6.5416   -2.4704 C.ar    1  UNL1        0.0186
     18 C          -0.1423    5.3236   -1.8447 C.ar    1  UNL1       -0.0380
     19 BR          1.4931    6.6015   -3.8021 Br      1  UNL1       -0.0503
     20 H          -0.5749   -2.3525   -0.2224 H       1  UNL1        0.0636
     21 H          -1.3327   -2.4711    2.2915 H       1  UNL1        0.0694
     22 H          -0.4469    2.5576   -0.5909 H       1  UNL1        0.0836
     23 H          -3.4087    6.8274    0.8136 H       1  UNL1        0.1654
     24 H          -3.3967    4.4000    1.4345 H       1  UNL1        0.0813
     25 H          -2.0798    8.5962   -0.9111 H       1  UNL1        0.0639
     26 H          -0.2983    8.6451   -2.6366 H       1  UNL1        0.0629
     27 H           0.3981    4.4227   -2.1192 H       1  UNL1        0.0635
@<TRIPOS>BOND
     1     1     2   ar
     2     1     5   ar
     3     2     3   ar
     4     3     4   ar
     5     4     5   ar
     6     1     6    1
     7     6     7    3
     8     5     8    1
     9     8     9    2
    10     9    10    1
    11    12    10   ar
    12    10    13   ar
    13    11    12   ar
    14    11    14   ar
    15    13    18   ar
    16    13    14   ar
    17    14    15   ar
    18    15    16   ar
    19    16    17   ar
    20    17    18   ar
    21    17    19    1
    22     2    20    1
    23     3    21    1
    24     9    22    1
    25    11    23    1
    26    12    24    1
    27    15    25    1
    28    16    26    1
    29    18    27    1
@<TRIPOS>MOLECULE
mol_748_akc_jejmech2022114959
*****
 38 41 0 0 0
SMALL
GASTEIGER

@<TRIPOS>ATOM
      1 C          -0.5357   -2.9438    0.1677 C.ar    1  UNL1        0.0230
      2 C          -0.0821   -1.8135   -0.5602 C.ar    1  UNL1       -0.0494
      3 C           1.2731   -1.4887   -0.6240 C.ar    1  UNL1       -0.0426
      4 C           2.1920   -2.2767    0.0516 C.ar    1  UNL1        0.0430
      5 C           1.7657   -3.3794    0.7853 C.ar    1  UNL1       -0.0173
      6 C           0.4257   -3.7298    0.8500 C.ar    1  UNL1        0.0742
      7 N           0.1086   -4.8161    1.5683 N.ar    1  UNL1       -0.2548
      8 C          -1.1889   -5.1669    1.6448 C.ar    1  UNL1        0.0301
      9 C          -2.2089   -4.4727    1.0301 C.ar    1  UNL1       -0.0204
     10 C          -1.8978   -3.3496    0.2590 C.ar    1  UNL1        0.0589
     11 CL          3.8671   -1.8911   -0.0233 Cl      1  UNL1       -0.0835
     12 N          -2.9305   -2.5818   -0.3283 N.pl3   1  UNL1       -0.2364
     13 N          -4.2276   -2.9653   -0.1950 N.2     1  UNL1       -0.1767
     14 C          -5.0851   -2.3083   -0.9060 C.2     1  UNL1        0.1525
     15 C          -7.0714   -1.5301   -1.7270 C.ar    1  UNL1        0.0434
     16 N          -6.0765   -0.7626   -2.3257 N.am    1  UNL1       -0.2796
     17 C          -4.8275   -1.1836   -1.9167 C.2     1  UNL1        0.2688
     18 C          -6.5317   -2.4975   -0.8811 C.ar    1  UNL1        0.0316
     19 C          -7.3075   -3.4076   -0.1885 C.ar    1  UNL1       -0.0085
     20 C          -8.6850   -3.3555   -0.4022 C.ar    1  UNL1        0.1307
     21 C          -9.2392   -2.3419   -1.2198 C.ar    1  UNL1       -0.0178
     22 C          -8.4315   -1.4179   -1.8978 C.ar    1  UNL1       -0.0364
     23 O          -3.7336   -0.7943   -2.2697 O.2     1  UNL1       -0.2681
     24 O          -9.6015   -4.1793    0.1803 O.3     1  UNL1       -0.4057
     25 C          -9.2833   -5.5561    0.3615 C.3     1  UNL1        0.5752
     26 F          -8.0580   -5.9060   -0.0801 F       1  UNL1       -0.1328
     27 F          -9.3737   -5.8578    1.6740 F       1  UNL1       -0.1328
     28 F         -10.1926   -6.3002   -0.3070 F       1  UNL1       -0.1328
     29 H          -0.7779   -1.1710   -1.0934 H       1  UNL1        0.0625
     30 H           1.5979   -0.6266   -1.2003 H       1  UNL1        0.0632
     31 H           2.4907   -3.9888    1.3192 H       1  UNL1        0.0653
     32 H          -1.3957   -6.0531    2.2374 H       1  UNL1        0.0830
     33 H          -3.2330   -4.8097    1.1422 H       1  UNL1        0.0652
     34 H          -2.6557   -1.9632   -1.0952 H       1  UNL1        0.1744
     35 H          -6.2180   -0.0274   -3.0005 H       1  UNL1        0.1552
     36 H          -6.8331   -4.1171    0.4808 H       1  UNL1        0.0661
     37 H         -10.3217   -2.2830   -1.3347 H       1  UNL1        0.0655
     38 H          -8.8741   -0.6536   -2.5281 H       1  UNL1        0.0637
@<TRIPOS>BOND
     1     1     2   ar
     2     1     6   ar
     3     1    10   ar
     4     2     3   ar
     5     3     4   ar
     6     4     5   ar
     7     5     6   ar
     8     6     7   ar
     9     7     8   ar
    10     8     9   ar
    11     9    10   ar
    12     4    11    1
    13    10    12    1
    14    12    13    1
    15    13    14    2
    16    17    14    1
    17    14    18    1
    18    15    16    1
    19    16    17   am
    20    15    22   ar
    21    15    18   ar
    22    18    19   ar
    23    19    20   ar
    24    20    21   ar
    25    21    22   ar
    26    17    23    2
    27    20    24    1
    28    24    25    1
    29    25    26    1
    30    25    27    1
    31    25    28    1
    32     2    29    1
    33     3    30    1
    34     5    31    1
    35     8    32    1
    36     9    33    1
    37    12    34    1
    38    16    35    1
    39    19    36    1
    40    21    37    1
    41    22    38    1
@<TRIPOS>MOLECULE
mol_749_akc_pj20231511
*****
 57 60 0 0 0
SMALL
GASTEIGER

@<TRIPOS>ATOM
      1 O           4.4358   -3.9445    1.0567 O.3     1  UNL1       -0.3898
      2 C           5.7976   -3.5328    1.1029 C.3     1  UNL1        0.0841
      3 C           6.2525   -2.9804   -0.2534 C.3     1  UNL1       -0.0081
      4 N           6.2018   -4.0200   -1.3803 N.4     1  UNL1        0.2387
      5 C           4.7781   -4.5272   -1.6256 C.3     1  UNL1       -0.0187
      6 C           4.5780   -5.1385   -3.0211 C.3     1  UNL1        0.0393
      7 N           5.0693   -4.3094   -4.1296 N.3     1  UNL1       -0.2923
      8 C           4.3499   -3.0259   -4.3119 C.3     1  UNL1        0.0007
      9 C           2.9092   -3.1911   -4.8280 C.3     1  UNL1       -0.0240
     10 C           2.0803   -1.8903   -4.9190 C.3     1  UNL1        0.0185
     11 N           2.5781   -0.9177   -5.9143 N.pl3   1  UNL1       -0.2983
     12 C           2.0791   -1.0220   -7.2398 C.ar    1  UNL1        0.0479
     13 C           0.6993   -1.1466   -7.4889 C.ar    1  UNL1       -0.0393
     14 C           0.1899   -1.1708   -8.7919 C.ar    1  UNL1       -0.0599
     15 C           1.0512   -1.0855   -9.8787 C.ar    1  UNL1       -0.0606
     16 C           2.4186   -0.9353   -9.6615 C.ar    1  UNL1       -0.0462
     17 C           2.9288   -0.8716   -8.3556 C.ar    1  UNL1        0.0341
     18 S           4.6787   -0.5719   -8.1612 S.3     1  UNL1       -0.0857
     19 C           4.6908    0.1732   -6.5390 C.ar    1  UNL1        0.0341
     20 C           5.7634    1.0167   -6.2164 C.ar    1  UNL1       -0.0457
     21 C           5.8628    1.5798   -4.9441 C.ar    1  UNL1       -0.0490
     22 C           4.8930    1.3111   -3.9798 C.ar    1  UNL1        0.0566
     23 C           3.8106    0.4733   -4.3150 C.ar    1  UNL1       -0.0276
     24 C           3.6941   -0.1145   -5.5828 C.ar    1  UNL1        0.0484
     25 C           4.9803    1.8729   -2.5833 C.3     1  UNL1        0.4175
     26 F           6.0368    2.7110   -2.3903 F       1  UNL1       -0.1659
     27 F           3.8679    2.5598   -2.2113 F       1  UNL1       -0.1659
     28 F           5.1263    0.8738   -1.6615 F       1  UNL1       -0.1659
     29 C           6.5178   -4.1160   -3.9359 C.3     1  UNL1        0.0393
     30 C           6.9211   -3.4553   -2.6055 C.3     1  UNL1       -0.0187
     31 H           3.8846   -3.2416    1.4510 H       1  UNL1        0.2096
     32 H           5.9004   -2.7628    1.8753 H       1  UNL1        0.0610
     33 H           6.4105   -4.3908    1.3944 H       1  UNL1        0.0610
     34 H           5.6080   -2.1523   -0.5708 H       1  UNL1        0.0837
     35 H           7.2894   -2.6350   -0.1861 H       1  UNL1        0.0837
     36 H           6.7345   -4.8449   -1.0761 H       1  UNL1        0.2035
     37 H           4.0946   -3.6861   -1.4782 H       1  UNL1        0.0827
     38 H           4.5917   -5.3043   -0.8776 H       1  UNL1        0.0827
     39 H           3.5218   -5.3913   -3.1591 H       1  UNL1        0.0479
     40 H           5.0989   -6.1058   -3.0561 H       1  UNL1        0.0479
     41 H           4.3506   -2.4369   -3.3879 H       1  UNL1        0.0427
     42 H           4.9049   -2.4499   -5.0585 H       1  UNL1        0.0427
     43 H           2.9265   -3.6891   -5.8039 H       1  UNL1        0.0293
     44 H           2.3594   -3.8508   -4.1460 H       1  UNL1        0.0293
     45 H           1.0517   -2.1922   -5.1475 H       1  UNL1        0.0468
     46 H           2.0008   -1.4410   -3.9237 H       1  UNL1        0.0468
     47 H          -0.0147   -1.1516   -6.6706 H       1  UNL1        0.0636
     48 H          -0.8839   -1.2322   -8.9550 H       1  UNL1        0.0618
     49 H           0.6581   -1.1058  -10.8925 H       1  UNL1        0.0618
     50 H           3.0814   -0.8423  -10.5196 H       1  UNL1        0.0629
     51 H           6.5219    1.2463   -6.9617 H       1  UNL1        0.0629
     52 H           6.7028    2.2465   -4.7215 H       1  UNL1        0.0623
     53 H           3.0313    0.3360   -3.5742 H       1  UNL1        0.0642
     54 H           7.0097   -5.0957   -4.0049 H       1  UNL1        0.0479
     55 H           6.9343   -3.5325   -4.7664 H       1  UNL1        0.0479
     56 H           7.9918   -3.6022   -2.4194 H       1  UNL1        0.0827
     57 H           6.7136   -2.3809   -2.6417 H       1  UNL1        0.0827
@<TRIPOS>UNITY_ATOM_ATTR
4 1
charge 1
@<TRIPOS>BOND
     1     1     2    1
     2     2     3    1
     3     3     4    1
     4     4     5    1
     5     5     6    1
     6     6     7    1
     7     7     8    1
     8     8     9    1
     9     9    10    1
    10    10    11    1
    11    11    12    1
    12    12    13   ar
    13    13    14   ar
    14    14    15   ar
    15    15    16   ar
    16    16    17   ar
    17    12    17   ar
    18    17    18    1
    19    18    19    1
    20    19    20   ar
    21    20    21   ar
    22    21    22   ar
    23    22    23   ar
    24    23    24   ar
    25    11    24    1
    26    19    24   ar
    27    22    25    1
    28    25    26    1
    29    25    27    1
    30    25    28    1
    31     7    29    1
    32    29    30    1
    33     4    30    1
    34     1    31    1
    35     2    32    1
    36     2    33    1
    37     3    34    1
    38     3    35    1
    39     4    36    1
    40     5    37    1
    41     5    38    1
    42     6    39    1
    43     6    40    1
    44     8    41    1
    45     8    42    1
    46     9    43    1
    47     9    44    1
    48    10    45    1
    49    10    46    1
    50    13    47    1
    51    14    48    1
    52    15    49    1
    53    16    50    1
    54    20    51    1
    55    21    52    1
    56    23    53    1
    57    29    54    1
    58    29    55    1
    59    30    56    1
    60    30    57    1
@<TRIPOS>MOLECULE
mol_74_akc_jejmech201804033
>73.sdf
 40 43 0 0 0
SMALL
GASTEIGER

@<TRIPOS>ATOM
      1 C           6.0180   -0.9773   -2.1503 C.3     1  UNL1        0.0788
      2 O           5.4925   -0.4649   -0.9329 O.3     1  UNL1       -0.4951
      3 C           4.7330   -1.3191   -0.1807 C.ar    1  UNL1        0.1207
      4 C           4.3828   -2.6295   -0.5229 C.ar    1  UNL1       -0.0108
      5 C           3.6164   -3.4364    0.3437 C.ar    1  UNL1        0.0038
      6 C           3.1877   -2.8618    1.5564 C.ar    1  UNL1       -0.0523
      7 C           3.5289   -1.5542    1.9025 C.ar    1  UNL1       -0.0577
      8 C           4.3012   -0.7890    1.0348 C.ar    1  UNL1       -0.0199
      9 C           3.3162   -4.8433   -0.0005 C.ar    1  UNL1        0.0725
     10 N           3.2102   -5.1461   -1.3110 N.ar    1  UNL1       -0.2451
     11 C           2.9747   -6.4236   -1.6608 C.ar    1  UNL1        0.0904
     12 C           2.8365   -6.7118   -3.0095 C.ar    1  UNL1       -0.0328
     13 C           2.6052   -8.0086   -3.4556 C.ar    1  UNL1       -0.0415
     14 C           2.5289   -9.0034   -2.5086 C.ar    1  UNL1        0.0284
     15 N           2.6535   -8.7731   -1.1872 N.ar    1  UNL1       -0.2528
     16 C           2.8591   -7.5011   -0.7497 C.ar    1  UNL1        0.0969
     17 C           2.9683   -7.1782    0.6177 C.ar    1  UNL1        0.0116
     18 C           3.1874   -5.8301    0.9678 C.ar    1  UNL1       -0.0259
     19 C           2.8545   -8.1825    1.7190 C.ar    1  UNL1       -0.0157
     20 C           3.6101   -8.0529    2.9053 C.ar    1  UNL1       -0.0540
     21 C           3.4665   -8.9417    3.9762 C.ar    1  UNL1       -0.0612
     22 C           2.5826  -10.0086    3.8779 C.ar    1  UNL1       -0.0617
     23 C           1.8408  -10.1801    2.7148 C.ar    1  UNL1       -0.0612
     24 C           1.9667   -9.2706    1.6576 C.ar    1  UNL1       -0.0540
     25 H           6.6494   -1.8545   -1.9740 H       1  UNL1        0.0660
     26 H           5.2143   -1.2022   -2.8588 H       1  UNL1        0.0660
     27 H           6.6483   -0.2007   -2.5941 H       1  UNL1        0.0660
     28 H           4.7110   -3.0631   -1.4636 H       1  UNL1        0.0661
     29 H           2.5720   -3.4261    2.2533 H       1  UNL1        0.0624
     30 H           3.1949   -1.1352    2.8479 H       1  UNL1        0.0619
     31 H           4.5712    0.2284    1.3068 H       1  UNL1        0.0654
     32 H           2.9049   -5.9023   -3.7328 H       1  UNL1        0.0640
     33 H           2.4925   -8.2305   -4.5105 H       1  UNL1        0.0633
     34 H           2.3575  -10.0390   -2.7870 H       1  UNL1        0.0830
     35 H           3.2723   -5.5555    2.0137 H       1  UNL1        0.0646
     36 H           4.3340   -7.2486    3.0182 H       1  UNL1        0.0624
     37 H           4.0481   -8.7965    4.8825 H       1  UNL1        0.0618
     38 H           2.4739  -10.7063    4.7037 H       1  UNL1        0.0618
     39 H           1.1554  -11.0183    2.6241 H       1  UNL1        0.0618
     40 H           1.3479   -9.4299    0.7772 H       1  UNL1        0.0624
@<TRIPOS>BOND
     1     1    25    1
     2     1    26    1
     3     1    27    1
     4     2     1    1
     5     3     2    1
     6     4     3   ar
     7     4    28    1
     8     5     4   ar
     9     6     5   ar
    10     6    29    1
    11     7     6   ar
    12     7    30    1
    13     8     7   ar
    14     8     3   ar
    15     8    31    1
    16     9     5    1
    17    10     9   ar
    18    11    10   ar
    19    12    11   ar
    20    12    32    1
    21    13    12   ar
    22    13    33    1
    23    14    13   ar
    24    14    34    1
    25    15    14   ar
    26    16    15   ar
    27    16    11   ar
    28    17    16   ar
    29    18    17   ar
    30    18     9   ar
    31    18    35    1
    32    19    17    1
    33    20    19   ar
    34    20    36    1
    35    21    20   ar
    36    21    37    1
    37    22    21   ar
    38    22    38    1
    39    23    22   ar
    40    23    39    1
    41    24    23   ar
    42    24    19   ar
    43    24    40    1
@<TRIPOS>MOLECULE
mol_750_akc_s0223523423002222
*****
 55 58 0 0 0
SMALL
GASTEIGER

@<TRIPOS>ATOM
      1 C          -1.7856    1.3365   -0.2834 C.ar    1  UNL1        0.0231
      2 C          -2.8332    0.4880    0.1120 C.ar    1  UNL1        0.1243
      3 C          -2.5593   -0.8369    0.5181 C.ar    1  UNL1       -0.0190
      4 C          -1.2606   -1.3534    0.4637 C.ar    1  UNL1       -0.0438
      5 C          -0.2616   -0.5040    0.0371 C.ar    1  UNL1        0.0678
      6 C          -0.5032    0.8296   -0.2739 C.ar    1  UNL1        0.1430
      7 C           1.1665   -0.7388   -0.1042 C.2     1  UNL1        0.2315
      8 O           0.6510    1.5379   -0.5199 O.3     1  UNL1       -0.4513
      9 C           1.6903    0.6259   -0.3573 C.2     1  UNL1        0.1763
     10 O          -4.0946    1.0226   -0.0015 O.3     1  UNL1       -0.4866
     11 C           2.9892    0.9070   -0.2233 C.2     1  UNL1       -0.0047
     12 O           1.7599   -1.7849    0.0241 O.2     1  UNL1       -0.2832
     13 C           3.4900    2.2751   -0.0687 C.ar    1  UNL1        0.0237
     14 C           3.9298    4.2796    1.2146 C.ar    1  UNL1       -0.0159
     15 C           3.4883    2.9512    1.1601 C.ar    1  UNL1        0.1275
     16 C           3.9635    2.9339   -1.2158 C.ar    1  UNL1       -0.0092
     17 C           4.4180    4.2567   -1.1511 C.ar    1  UNL1        0.1209
     18 C           4.3948    4.9278    0.0677 C.ar    1  UNL1       -0.0165
     19 O           2.9991    2.4930    2.3582 O.3     1  UNL1       -0.4945
     20 O           4.8476    4.7740   -2.3436 O.3     1  UNL1       -0.4951
     21 C           5.3537    6.1036   -2.3213 C.3     1  UNL1        0.0788
     22 C           3.3339    1.1605    2.7259 C.3     1  UNL1        0.0788
     23 C          -5.0571    0.5809    0.9589 C.3     1  UNL1        0.1291
     24 C          -6.4412    1.1224    0.5668 C.3     1  UNL1        0.0031
     25 N          -6.8526    0.7186   -0.8442 N.4     1  UNL1        0.2376
     26 C          -8.2275    1.2410   -1.2217 C.3     1  UNL1       -0.0316
     27 C          -9.1194    0.0220   -1.1130 C.3     1  UNL1       -0.0077
     28 C          -8.2468   -1.0798   -1.6739 C.3     1  UNL1       -0.0077
     29 C          -6.8620   -0.7742   -1.1290 C.3     1  UNL1       -0.0316
     30 H          -1.9685    2.3665   -0.5720 H       1  UNL1        0.0691
     31 H          -3.3368   -1.5117    0.8601 H       1  UNL1        0.0654
     32 H          -1.0311   -2.3718    0.7612 H       1  UNL1        0.0627
     33 H           3.7153    0.1144   -0.0510 H       1  UNL1        0.0663
     34 H           3.9152    4.8116    2.1604 H       1  UNL1        0.0655
     35 H           3.9706    2.4252   -2.1773 H       1  UNL1        0.0661
     36 H           4.7297    5.9552    0.1664 H       1  UNL1        0.0655
     37 H           4.5517    6.8199   -2.1131 H       1  UNL1        0.0660
     38 H           6.1751    6.2111   -1.6047 H       1  UNL1        0.0660
     39 H           5.7539    6.3259   -3.3151 H       1  UNL1        0.0660
     40 H           2.5361    0.4772    2.4209 H       1  UNL1        0.0660
     41 H           4.3046    0.8367    2.3376 H       1  UNL1        0.0660
     42 H           3.3827    1.1194    3.8190 H       1  UNL1        0.0660
     43 H          -5.1113   -0.5072    1.0212 H       1  UNL1        0.0751
     44 H          -4.7865    0.9732    1.9462 H       1  UNL1        0.0751
     45 H          -7.2162    0.7663    1.2532 H       1  UNL1        0.0848
     46 H          -6.4241    2.2178    0.5622 H       1  UNL1        0.0848
     47 H          -6.1558    1.1533   -1.4698 H       1  UNL1        0.2034
     48 H          -8.1554    1.6006   -2.2537 H       1  UNL1        0.0814
     49 H          -8.5173    2.0593   -0.5567 H       1  UNL1        0.0814
     50 H          -9.3680   -0.1822   -0.0646 H       1  UNL1        0.0319
     51 H         -10.0544    0.1365   -1.6688 H       1  UNL1        0.0319
     52 H          -8.5905   -2.0752   -1.3743 H       1  UNL1        0.0319
     53 H          -8.2426   -1.0449   -2.7693 H       1  UNL1        0.0319
     54 H          -6.6833   -1.3156   -0.1981 H       1  UNL1        0.0814
     55 H          -6.0692   -0.9824   -1.8542 H       1  UNL1        0.0814
@<TRIPOS>UNITY_ATOM_ATTR
25 1
charge 1
@<TRIPOS>BOND
     1     1     2   ar
     2     2     3   ar
     3     3     4   ar
     4     4     5   ar
     5     5     6   ar
     6     1     6   ar
     7     8     9    1
     8     7     9    1
     9     6     8    1
    10     7     5    1
    11     2    10    1
    12     9    11    2
    13     7    12    2
    14    11    13    1
    15    14    15   ar
    16    16    17   ar
    17    17    18   ar
    18    14    18   ar
    19    15    13   ar
    20    13    16   ar
    21    15    19    1
    22    17    20    1
    23    20    21    1
    24    19    22    1
    25    10    23    1
    26    23    24    1
    27    24    25    1
    28    26    27    1
    29    27    28    1
    30    28    29    1
    31    25    26    1
    32    25    29    1
    33     1    30    1
    34     3    31    1
    35     4    32    1
    36    11    33    1
    37    14    34    1
    38    16    35    1
    39    18    36    1
    40    21    37    1
    41    21    38    1
    42    21    39    1
    43    22    40    1
    44    22    41    1
    45    22    42    1
    46    23    43    1
    47    23    44    1
    48    24    45    1
    49    24    46    1
    50    25    47    1
    51    26    48    1
    52    26    49    1
    53    27    50    1
    54    27    51    1
    55    28    52    1
    56    28    53    1
    57    29    54    1
    58    29    55    1
@<TRIPOS>MOLECULE
mol_751_akc_jexppara2023108498
*****
 43 46 0 0 0
SMALL
GASTEIGER

@<TRIPOS>ATOM
      1 C           0.3065   -0.8415   -0.6011 C.ar    1  UNL1       -0.0092
      2 C           1.5205   -1.5680   -0.7059 C.ar    1  UNL1       -0.0534
      3 C           2.7580   -0.9268   -0.8172 C.ar    1  UNL1       -0.0611
      4 C           2.8231    0.4587   -0.8268 C.ar    1  UNL1       -0.0612
      5 C           1.6509    1.2037   -0.7321 C.ar    1  UNL1       -0.0540
      6 C           0.3990    0.5764   -0.6225 C.ar    1  UNL1       -0.0173
      7 C          -0.7594    1.3635   -0.5353 C.ar    1  UNL1       -0.0540
      8 C          -2.0175    0.7801   -0.4268 C.ar    1  UNL1       -0.0606
      9 C          -2.1324   -0.6036   -0.3975 C.ar    1  UNL1       -0.0525
     10 C          -0.9898   -1.4185   -0.4779 C.ar    1  UNL1        0.0025
     11 C          -1.1971   -2.8874   -0.4157 C.2     1  UNL1        0.0577
     12 N          -2.3849   -3.4031   -0.3389 N.2     1  UNL1       -0.1546
     13 N          -2.3456   -4.7922   -0.2745 N.2     1  UNL1       -0.1235
     14 C          -3.5058   -5.3504   -0.1370 C.ar    1  UNL1        0.1989
     15 N          -4.8330   -4.8892   -0.0259 N.ar    1  UNL1       -0.2939
     16 C          -5.7704   -5.9364    0.0391 C.ar    1  UNL1        0.0622
     17 C          -5.2578   -7.1779    0.0396 C.ar    1  UNL1        0.0036
     18 S          -3.5175   -7.1536   -0.0499 S.2     1  UNL1       -0.0554
     19 C          -5.1873   -3.5500   -0.0008 C.2     1  UNL1        0.0052
     20 C          -7.2168   -5.6905   -0.0020 C.ar    1  UNL1       -0.0006
     21 C          -5.6147   -2.8357    1.0471 C.2     1  UNL1       -0.0820
     22 C          -7.9611   -5.6131    1.1803 C.ar    1  UNL1       -0.0526
     23 C          -9.3254   -5.3174    1.1294 C.ar    1  UNL1       -0.0611
     24 C          -9.9523   -5.1117   -0.0985 C.ar    1  UNL1       -0.0617
     25 C          -9.2209   -5.2083   -1.2814 C.ar    1  UNL1       -0.0611
     26 C          -7.8575   -5.4997   -1.2304 C.ar    1  UNL1       -0.0526
     27 H           1.5297   -2.6543   -0.7071 H       1  UNL1        0.0624
     28 H           3.6688   -1.5153   -0.8960 H       1  UNL1        0.0618
     29 H           3.7833    0.9611   -0.9102 H       1  UNL1        0.0618
     30 H           1.7235    2.2900   -0.7426 H       1  UNL1        0.0624
     31 H          -0.6902    2.4500   -0.5518 H       1  UNL1        0.0624
     32 H          -2.9057    1.4031   -0.3616 H       1  UNL1        0.0618
     33 H          -3.1216   -1.0452   -0.3047 H       1  UNL1        0.0624
     34 H          -0.3172   -3.5492   -0.4269 H       1  UNL1        0.0854
     35 H          -5.8247   -8.1003    0.0515 H       1  UNL1        0.0715
     36 H          -5.0319   -3.0788   -0.9667 H       1  UNL1        0.0808
     37 H          -5.8364   -1.7808    0.9457 H       1  UNL1        0.0549
     38 H          -5.7050   -3.2845    2.0306 H       1  UNL1        0.0549
     39 H          -7.4794   -5.7545    2.1448 H       1  UNL1        0.0624
     40 H          -9.8968   -5.2367    2.0511 H       1  UNL1        0.0618
     41 H         -11.0117   -4.8684   -0.1346 H       1  UNL1        0.0618
     42 H          -9.7088   -5.0464   -2.2390 H       1  UNL1        0.0618
     43 H          -7.2920   -5.5587   -2.1615 H       1  UNL1        0.0624
@<TRIPOS>BOND
     1     1     2   ar
     2     2     3   ar
     3     3     4   ar
     4     4     5   ar
     5     5     6   ar
     6     7     8   ar
     7     8     9   ar
     8     9    10   ar
     9     1     6   ar
    10     1    10   ar
    11     6     7   ar
    12    10    11    1
    13    11    12    2
    14    12    13    1
    15    13    14    2
    16    15    16   ar
    17    16    17   ar
    18    17    18   ar
    19    14    15   ar
    20    14    18   ar
    21    15    19    1
    22    16    20    1
    23    19    21    2
    24    22    23   ar
    25    23    24   ar
    26    24    25   ar
    27    25    26   ar
    28    20    22   ar
    29    20    26   ar
    30     2    27    1
    31     3    28    1
    32     4    29    1
    33     5    30    1
    34     7    31    1
    35     8    32    1
    36     9    33    1
    37    11    34    1
    38    17    35    1
    39    19    36    1
    40    21    37    1
    41    21    38    1
    42    22    39    1
    43    23    40    1
    44    24    41    1
    45    25    42    1
    46    26    43    1
@<TRIPOS>MOLECULE
mol_752_akc_acsjmedchem2c01932
*****
 48 52 0 0 0
SMALL
GASTEIGER

@<TRIPOS>ATOM
      1 C           1.5294    0.3788   -0.0540 C.ar    1  UNL1        0.0279
      2 C           2.2928    1.5645   -0.0625 C.ar    1  UNL1       -0.0505
      3 C           3.6816    1.4868   -0.0482 C.ar    1  UNL1       -0.0610
      4 C           4.2946    0.2399   -0.0320 C.ar    1  UNL1       -0.0597
      5 C           3.5168   -0.9280   -0.0295 C.ar    1  UNL1       -0.0356
      6 C           2.1271   -0.8851   -0.0363 C.ar    1  UNL1        0.0738
      7 N           1.4138   -2.0233   -0.0294 N.ar    1  UNL1       -0.2445
      8 C           0.0435   -2.0240   -0.0219 C.ar    1  UNL1        0.0978
      9 C          -0.6085   -0.7813    0.0224 C.ar    1  UNL1        0.1000
     10 C           0.1188    0.4111   -0.0443 C.ar    1  UNL1        0.1012
     11 N          -0.7085    1.5091   -0.1045 N.ar    1  UNL1       -0.2271
     12 C          -1.9257    1.0264   -0.0403 C.ar    1  UNL1        0.1387
     13 N          -1.9254   -0.3571    0.1492 N.ar    1  UNL1       -0.2974
     14 C          -3.1064   -1.0565    0.4269 C.ar    1  UNL1        0.0118
     15 C          -4.2895   -0.4197    0.4032 C.ar    1  UNL1       -0.0450
     16 C          -4.3187    0.9996    0.1040 C.ar    1  UNL1       -0.0569
     17 C          -3.1826    1.6930   -0.0912 C.ar    1  UNL1       -0.0188
     18 C          -0.5893   -3.3494   -0.0491 C.ar    1  UNL1        0.0096
     19 C          -0.0601   -4.4044    0.7123 C.ar    1  UNL1       -0.0068
     20 C          -0.6534   -5.6800    0.7493 C.ar    1  UNL1        0.1658
     21 C          -1.8582   -5.9086    0.0505 C.ar    1  UNL1        0.2035
     22 C          -2.3812   -4.8645   -0.7400 C.ar    1  UNL1        0.1658
     23 C          -1.7070   -3.6372   -0.8348 C.ar    1  UNL1       -0.0068
     24 O          -3.5273   -4.8851   -1.4999 O.3     1  UNL1       -0.4913
     25 O          -2.5661   -7.0816    0.0150 O.3     1  UNL1       -0.4885
     26 O          -0.1066   -6.7104    1.4712 O.3     1  UNL1       -0.4913
     27 C           1.2574   -6.6038    1.8625 C.3     1  UNL1        0.0790
     28 C          -2.2181   -8.1600    0.8676 C.3     1  UNL1        0.0791
     29 C          -4.5991   -5.7035   -1.0450 C.3     1  UNL1        0.0790
     30 H           1.7981    2.5332   -0.0682 H       1  UNL1        0.0625
     31 H           4.2798    2.3949   -0.0454 H       1  UNL1        0.0618
     32 H           5.3802    0.1646   -0.0212 H       1  UNL1        0.0618
     33 H           4.0108   -1.8971   -0.0209 H       1  UNL1        0.0639
     34 H          -3.0417   -2.1054    0.6756 H       1  UNL1        0.0813
     35 H          -5.2220   -0.9354    0.6086 H       1  UNL1        0.0632
     36 H          -5.2855    1.4922    0.0589 H       1  UNL1        0.0619
     37 H          -3.1948    2.7579   -0.2941 H       1  UNL1        0.0654
     38 H           0.8416   -4.1986    1.2847 H       1  UNL1        0.0662
     39 H          -2.1082   -2.8834   -1.5107 H       1  UNL1        0.0662
     40 H           1.9044   -6.3584    1.0135 H       1  UNL1        0.0660
     41 H           1.3719   -5.8794    2.6746 H       1  UNL1        0.0660
     42 H           1.5694   -7.5805    2.2455 H       1  UNL1        0.0660
     43 H          -1.2878   -8.6309    0.5367 H       1  UNL1        0.0660
     44 H          -2.1822   -7.8576    1.9190 H       1  UNL1        0.0660
     45 H          -3.0080   -8.9133    0.7820 H       1  UNL1        0.0660
     46 H          -4.4876   -6.7227   -1.4260 H       1  UNL1        0.0660
     47 H          -4.7085   -5.6878    0.0452 H       1  UNL1        0.0660
     48 H          -5.5256   -5.3009   -1.4675 H       1  UNL1        0.0660
@<TRIPOS>BOND
     1     1     2   ar
     2     2     3   ar
     3     3     4   ar
     4     4     5   ar
     5     5     6   ar
     6     7     8   ar
     7     8     9   ar
     8     9    10   ar
     9     1     6   ar
    10     1    10   ar
    11     6     7   ar
    12    11    12   ar
    13     9    13   ar
    14    10    11   ar
    15    14    15   ar
    16    15    16   ar
    17    16    17   ar
    18    12    17   ar
    19    13    14   ar
    20    12    13   ar
    21    19    20   ar
    22    20    21   ar
    23    21    22   ar
    24    22    23   ar
    25    18    19   ar
    26    18    23   ar
    27     8    18    1
    28    22    24    1
    29    21    25    1
    30    20    26    1
    31    26    27    1
    32    25    28    1
    33    24    29    1
    34     2    30    1
    35     3    31    1
    36     4    32    1
    37     5    33    1
    38    14    34    1
    39    15    35    1
    40    16    36    1
    41    17    37    1
    42    19    38    1
    43    23    39    1
    44    27    40    1
    45    27    41    1
    46    27    42    1
    47    28    43    1
    48    28    44    1
    49    28    45    1
    50    29    46    1
    51    29    47    1
    52    29    48    1
@<TRIPOS>MOLECULE
mol_753_akc_jejmech2023115310
*****
 45 47 0 0 0
SMALL
GASTEIGER

@<TRIPOS>ATOM
      1 C           0.9515   -0.8089   -1.2061 C.ar    1  UNL1       -0.0347
      2 C          -0.4254   -0.9225   -1.2869 C.ar    1  UNL1        0.0282
      3 N          -1.0864   -2.0981   -1.2205 N.ar    1  UNL1       -0.2632
      4 C          -0.3386   -3.2111   -1.0689 C.ar    1  UNL1        0.0282
      5 C           1.0432   -3.2057   -0.9860 C.ar    1  UNL1       -0.0347
      6 C           1.6988   -1.9774   -1.0534 C.ar    1  UNL1        0.0006
      7 C           3.1790   -1.8820   -0.8784 C.2     1  UNL1        0.0678
      8 N           3.6503   -0.8800   -0.1941 N.2     1  UNL1       -0.1516
      9 C           4.0408   -2.9488   -1.5272 C.3     1  UNL1       -0.0200
     10 N           5.0201   -0.9022   -0.0071 N.2     1  UNL1       -0.1259
     11 C           5.4968   -0.2095    0.9798 C.2     1  UNL1        0.1897
     12 S           7.2413   -0.1500    1.1043 S.3     1  UNL1       -0.0749
     13 N           4.9059    0.5566    1.9633 N.am    1  UNL1       -0.2167
     14 C           5.7484    1.3772    2.7011 C.2     1  UNL1        0.2393
     15 C           7.2163    1.1681    2.3481 C.3     1  UNL1        0.0918
     16 C           3.5129    0.5472    2.2280 C.ar    1  UNL1        0.0432
     17 O           5.4087    2.1801    3.5734 O.2     1  UNL1       -0.2736
     18 C           7.9209    2.4779    1.9332 C.3     1  UNL1       -0.0260
     19 C           2.8615   -0.6528    2.5515 C.ar    1  UNL1       -0.0399
     20 C           1.4738   -0.6851    2.7015 C.ar    1  UNL1       -0.0600
     21 C           0.7292    0.4798    2.5299 C.ar    1  UNL1       -0.0616
     22 C           1.3742    1.6851    2.2525 C.ar    1  UNL1       -0.0600
     23 C           2.7649    1.7254    2.1243 C.ar    1  UNL1       -0.0399
     24 C           9.4147    2.2701    1.6491 C.3     1  UNL1       -0.0612
     25 C           7.2588    3.1876    0.7472 C.3     1  UNL1       -0.0612
     26 H           1.4252    0.1661   -1.2505 H       1  UNL1        0.0639
     27 H          -1.0550   -0.0450   -1.4013 H       1  UNL1        0.0830
     28 H          -0.8999   -4.1393   -0.9982 H       1  UNL1        0.0830
     29 H           1.5674   -4.1397   -0.8323 H       1  UNL1        0.0639
     30 H           3.6364   -3.9486   -1.3651 H       1  UNL1        0.0293
     31 H           4.0886   -2.7528   -2.6026 H       1  UNL1        0.0293
     32 H           5.0598   -2.9556   -1.1343 H       1  UNL1        0.0293
     33 H           7.7014    0.7615    3.2400 H       1  UNL1        0.0514
     34 H           7.8561    3.1682    2.7852 H       1  UNL1        0.0311
     35 H           3.4277   -1.5736    2.6625 H       1  UNL1        0.0636
     36 H           0.9727   -1.6230    2.9261 H       1  UNL1        0.0618
     37 H          -0.3543    0.4468    2.6074 H       1  UNL1        0.0618
     38 H           0.7923    2.5937    2.1184 H       1  UNL1        0.0618
     39 H           3.2483    2.6694    1.8877 H       1  UNL1        0.0636
     40 H           9.5894    1.5435    0.8498 H       1  UNL1        0.0233
     41 H           9.8858    3.2101    1.3403 H       1  UNL1        0.0233
     42 H           9.9343    1.9202    2.5472 H       1  UNL1        0.0233
     43 H           6.2277    3.4697    0.9846 H       1  UNL1        0.0233
     44 H           7.7972    4.1104    0.5043 H       1  UNL1        0.0233
     45 H           7.2470    2.5653   -0.1518 H       1  UNL1        0.0233
@<TRIPOS>BOND
     1     1     2   ar
     2     1     6   ar
     3     2     3   ar
     4     3     4   ar
     5     4     5   ar
     6     5     6   ar
     7     6     7    1
     8     7     8    2
     9     7     9    1
    10     8    10    1
    11    10    11    2
    12    12    11    1
    13    11    13    1
    14    12    15    1
    15    13    14   am
    16    14    15    1
    17    13    16    1
    18    14    17    2
    19    15    18    1
    20    23    16   ar
    21    19    16   ar
    22    19    20   ar
    23    20    21   ar
    24    21    22   ar
    25    22    23   ar
    26    18    24    1
    27    18    25    1
    28     1    26    1
    29     2    27    1
    30     4    28    1
    31     5    29    1
    32     9    30    1
    33     9    31    1
    34     9    32    1
    35    15    33    1
    36    18    34    1
    37    19    35    1
    38    20    36    1
    39    21    37    1
    40    22    38    1
    41    23    39    1
    42    24    40    1
    43    24    41    1
    44    24    42    1
    45    25    43    1
    46    25    44    1
    47    25    45    1
@<TRIPOS>MOLECULE
mol_754_akc_jejmech2023115310
*****
 45 47 0 0 0
SMALL
GASTEIGER

@<TRIPOS>ATOM
      1 C           0.9552   -0.9683   -1.1770 C.ar    1  UNL1       -0.0347
      2 C          -0.4203   -1.0835   -1.2785 C.ar    1  UNL1        0.0282
      3 N          -1.0866   -2.2495   -1.1354 N.ar    1  UNL1       -0.2632
      4 C          -0.3461   -3.3469   -0.8732 C.ar    1  UNL1        0.0282
      5 C           1.0329   -3.3396   -0.7599 C.ar    1  UNL1       -0.0347
      6 C           1.6948   -2.1236   -0.9226 C.ar    1  UNL1        0.0006
      7 C           3.1751   -2.0178   -0.7854 C.2     1  UNL1        0.0678
      8 N           3.6530   -0.9552   -0.2035 N.2     1  UNL1       -0.1516
      9 C           4.0310   -3.1200   -1.3741 C.3     1  UNL1       -0.0200
     10 N           5.0305   -0.9064   -0.0887 N.2     1  UNL1       -0.1259
     11 C           5.4951   -0.0977    0.8113 C.2     1  UNL1        0.1897
     12 S           7.2344    0.1366    0.8458 S.3     1  UNL1       -0.0749
     13 N           4.8756    0.6926    1.7565 N.am    1  UNL1       -0.2167
     14 C           5.6825    1.5993    2.4240 C.2     1  UNL1        0.2393
     15 C           7.1521    1.2414    2.2852 C.3     1  UNL1        0.0918
     16 C           3.4954    0.6272    2.0615 C.ar    1  UNL1        0.0432
     17 O           5.3056    2.5572    3.0928 O.2     1  UNL1       -0.2736
     18 C           7.7481    0.5777    3.5516 C.3     1  UNL1       -0.0260
     19 C           2.9619   -0.5490    2.6100 C.ar    1  UNL1       -0.0399
     20 C           1.5946   -0.6465    2.8688 C.ar    1  UNL1       -0.0600
     21 C           0.7547    0.4262    2.5749 C.ar    1  UNL1       -0.0616
     22 C           1.2846    1.6084    2.0561 C.ar    1  UNL1       -0.0600
     23 C           2.6563    1.7185    1.8191 C.ar    1  UNL1       -0.0399
     24 C           7.7360    1.5401    4.7454 C.3     1  UNL1       -0.0612
     25 C           7.0896   -0.7457    3.9669 C.3     1  UNL1       -0.0612
     26 H           1.4338   -0.0024   -1.2932 H       1  UNL1        0.0639
     27 H          -1.0417   -0.2159   -1.4806 H       1  UNL1        0.0830
     28 H          -0.9138   -4.2655   -0.7439 H       1  UNL1        0.0830
     29 H           1.5528   -4.2582   -0.5179 H       1  UNL1        0.0639
     30 H           3.5980   -4.1060   -1.2025 H       1  UNL1        0.0293
     31 H           4.1159   -2.9535   -2.4527 H       1  UNL1        0.0293
     32 H           5.0342   -3.1338   -0.9432 H       1  UNL1        0.0293
     33 H           7.7051    2.1536    2.0342 H       1  UNL1        0.0514
     34 H           8.8049    0.3586    3.3423 H       1  UNL1        0.0311
     35 H           3.6061   -1.3970    2.8264 H       1  UNL1        0.0636
     36 H           1.1834   -1.5626    3.2839 H       1  UNL1        0.0618
     37 H          -0.3149    0.3397    2.7488 H       1  UNL1        0.0618
     38 H           0.6271    2.4427    1.8268 H       1  UNL1        0.0618
     39 H           3.0557    2.6407    1.4050 H       1  UNL1        0.0636
     40 H           6.7178    1.7485    5.0889 H       1  UNL1        0.0233
     41 H           8.2823    1.1095    5.5920 H       1  UNL1        0.0233
     42 H           8.2159    2.4897    4.4883 H       1  UNL1        0.0233
     43 H           7.2204   -1.5212    3.2062 H       1  UNL1        0.0233
     44 H           7.5444   -1.1285    4.8875 H       1  UNL1        0.0233
     45 H           6.0183   -0.6246    4.1545 H       1  UNL1        0.0233
@<TRIPOS>BOND
     1     1     2   ar
     2     1     6   ar
     3     2     3   ar
     4     3     4   ar
     5     4     5   ar
     6     5     6   ar
     7     6     7    1
     8     7     8    2
     9     7     9    1
    10     8    10    1
    11    10    11    2
    12    12    11    1
    13    11    13    1
    14    12    15    1
    15    13    14   am
    16    14    15    1
    17    13    16    1
    18    14    17    2
    19    23    16   ar
    20    19    16   ar
    21    19    20   ar
    22    20    21   ar
    23    21    22   ar
    24    22    23   ar
    25    18    24    1
    26    18    25    1
    27     1    26    1
    28     2    27    1
    29     4    28    1
    30     5    29    1
    31     9    30    1
    32     9    31    1
    33     9    32    1
    34    18    34    1
    35    19    35    1
    36    20    36    1
    37    21    37    1
    38    22    38    1
    39    23    39    1
    40    24    40    1
    41    24    41    1
    42    24    42    1
    43    25    43    1
    44    25    44    1
    45    25    45    1
    46    15    33    1
    47    15    18    1
@<TRIPOS>MOLECULE
mol_755_akc_d2md00464j
*****
 32 34 0 0 0
SMALL
GASTEIGER

@<TRIPOS>ATOM
      1 O           7.9973   -0.4086    1.1771 O.3     1  UNL1       -0.4254
      2 C           6.7427   -0.9698    0.8446 C.3     1  UNL1        0.2436
      3 C           5.7780    0.1768    0.7419 C.2     1  UNL1        0.0985
      4 C           6.4326    1.2841    1.0899 C.2     1  UNL1        0.1474
      5 C           7.8259    0.9230    1.3879 C.2     1  UNL1        0.3547
      6 O           8.7050    1.6854    1.7493 O.2     1  UNL1       -0.2438
      7 O           6.8038   -1.6801   -0.3800 O.3     1  UNL1       -0.3531
      8 N           4.4740   -0.0687    0.3242 N.pl3   1  UNL1       -0.3353
      9 CL          5.8803    2.8812    1.1944 Cl      1  UNL1       -0.0743
     10 C           3.5863    0.8846   -0.3396 C.3     1  UNL1        0.0547
     11 C           4.0225    1.3905   -1.6717 C.ar    1  UNL1        0.1002
     12 C           4.2114    2.6870   -2.0947 C.ar    1  UNL1        0.0559
     13 N           4.5983    2.5861   -3.4104 N.ar    1  UNL1       -0.2198
     14 N           4.6505    1.2747   -3.7579 N.ar    1  UNL1       -0.0605
     15 N           4.3078    0.5415   -2.7060 N.ar    1  UNL1       -0.1326
     16 C           4.8995    3.6307   -4.3227 C.ar    1  UNL1        0.0670
     17 C           5.1981    3.3286   -5.6593 C.ar    1  UNL1       -0.0362
     18 C           5.4779    4.3576   -6.5632 C.ar    1  UNL1       -0.0598
     19 C           5.4679    5.6856   -6.1398 C.ar    1  UNL1       -0.0616
     20 C           5.1796    5.9907   -4.8116 C.ar    1  UNL1       -0.0598
     21 C           4.8945    4.9690   -3.9025 C.ar    1  UNL1       -0.0362
     22 H           6.4440   -1.6668    1.6351 H       1  UNL1        0.1125
     23 H           6.6510   -1.0405   -1.0970 H       1  UNL1        0.2139
     24 H           4.3687   -1.0065   -0.0730 H       1  UNL1        0.1464
     25 H           2.6179    0.3881   -0.4775 H       1  UNL1        0.0527
     26 H           3.3830    1.7254    0.3338 H       1  UNL1        0.0527
     27 H           4.0927    3.6267   -1.5814 H       1  UNL1        0.0850
     28 H           5.2096    2.3013   -6.0197 H       1  UNL1        0.0639
     29 H           5.7029    4.1225   -7.6012 H       1  UNL1        0.0618
     30 H           5.6866    6.4841   -6.8448 H       1  UNL1        0.0618
     31 H           5.1774    7.0268   -4.4809 H       1  UNL1        0.0618
     32 H           4.6820    5.2548   -2.8771 H       1  UNL1        0.0639
@<TRIPOS>BOND
     1     1     2    1
     2     1     5    1
     3     2     3    1
     4     3     4    2
     5     4     5    1
     6     5     6    2
     7     2     7    1
     8     3     8    1
     9     4     9    1
    10     8    10    1
    11    10    11    1
    12    15    11   ar
    13    12    11   ar
    14    12    13   ar
    15    13    14   ar
    16    14    15   ar
    17    13    16    1
    18    21    16   ar
    19    17    16   ar
    20    17    18   ar
    21    18    19   ar
    22    19    20   ar
    23    20    21   ar
    24     2    22    1
    25     7    23    1
    26     8    24    1
    27    10    25    1
    28    10    26    1
    29    12    27    1
    30    17    28    1
    31    18    29    1
    32    19    30    1
    33    20    31    1
    34    21    32    1
@<TRIPOS>MOLECULE
mol_756_akc_jejmech2023115333
*****
 77 80 0 0 0
SMALL
GASTEIGER

@<TRIPOS>ATOM
      1 C          -3.3789   -5.9615   -5.1028 C.ar    1  UNL1        0.0185
      2 C          -4.2169   -6.4604   -6.0986 C.ar    1  UNL1       -0.0476
      3 C          -3.6719   -6.9244   -7.3057 C.ar    1  UNL1       -0.0192
      4 C          -2.2891   -6.9294   -7.5253 C.ar    1  UNL1        0.1240
      5 C          -1.4457   -6.4628   -6.5207 C.ar    1  UNL1        0.0231
      6 C          -2.0071   -5.9723   -5.3346 C.ar    1  UNL1        0.1426
      7 O          -1.1250   -5.4231   -4.3869 O.2     1  UNL1       -0.4216
      8 C          -1.5973   -4.7031   -3.2937 C.ar    1  UNL1        0.3463
      9 C          -3.0513   -4.7801   -2.9974 C.ar    1  UNL1        0.0841
     10 C          -3.8828   -5.3988   -3.8532 C.ar    1  UNL1       -0.0352
     11 O          -0.8261   -4.0493   -2.5996 O.2     1  UNL1       -0.2445
     12 O          -1.9100   -7.3797   -8.7604 O.3     1  UNL1       -0.4918
     13 C          -0.5213   -7.6264   -8.9812 C.3     1  UNL1        0.0896
     14 C          -0.3338   -8.3463  -10.3208 C.3     1  UNL1       -0.0189
     15 C          -0.5081   -7.4809  -11.5743 C.3     1  UNL1       -0.0528
     16 C          -1.9067   -6.9204  -11.7727 C.3     1  UNL1       -0.0652
     17 C          -3.6251   -4.1747   -1.7403 C.2     1  UNL1        0.0910
     18 C          -2.7684   -4.1918   -0.4847 C.3     1  UNL1       -0.0184
     19 N          -4.8196   -3.6411   -1.7362 N.2     1  UNL1       -0.0891
     20 O          -5.1234   -3.0752   -0.4805 O.2     1  UNL1       -0.3936
     21 C          -6.4216   -2.4811   -0.5344 C.3     1  UNL1        0.1179
     22 C          -6.7215   -1.7743    0.7904 C.3     1  UNL1       -0.0161
     23 C          -5.8117   -0.5661    1.0464 C.3     1  UNL1       -0.0498
     24 C          -6.1521    0.1969    2.3357 C.3     1  UNL1       -0.0513
     25 C          -6.0847   -0.6147    3.6331 C.3     1  UNL1       -0.0333
     26 C          -4.7015   -1.1967    3.9197 C.3     1  UNL1        0.0432
     27 N          -4.6915   -1.9979    5.1265 N.ar    1  UNL1       -0.2513
     28 N          -4.6017   -2.3939    7.2462 N.ar    1  UNL1       -0.1291
     29 N          -4.6001   -1.4273    6.3406 N.ar    1  UNL1       -0.0653
     30 C          -4.7747   -3.3534    5.2305 C.ar    1  UNL1        0.0539
     31 C          -4.6963   -3.5922    6.5899 C.ar    1  UNL1        0.1270
     32 C          -4.7498   -4.8589    7.3611 C.3     1  UNL1        0.0147
     33 N          -5.7743   -4.8250    8.4765 N.4     1  UNL1        0.2397
     34 C          -5.7225   -6.0115    9.3938 C.3     1  UNL1       -0.0313
     35 C          -7.2027   -4.7035    8.0051 C.3     1  UNL1       -0.0313
     36 C          -7.8461   -6.0568    8.2661 C.3     1  UNL1       -0.0077
     37 C          -6.7615   -6.9556    8.8309 C.3     1  UNL1       -0.0077
     38 H          -5.2964   -6.4713   -5.9713 H       1  UNL1        0.0626
     39 H          -4.3349   -7.2801   -8.0925 H       1  UNL1        0.0654
     40 H          -0.3684   -6.4334   -6.6412 H       1  UNL1        0.0691
     41 H          -4.9498   -5.4694   -3.6600 H       1  UNL1        0.0633
     42 H           0.0468   -6.6891   -8.9720 H       1  UNL1        0.0696
     43 H          -0.1439   -8.2900   -8.1930 H       1  UNL1        0.0696
     44 H           0.6819   -8.7598  -10.3476 H       1  UNL1        0.0298
     45 H          -1.0294   -9.1923  -10.3799 H       1  UNL1        0.0298
     46 H           0.2176   -6.6592  -11.5709 H       1  UNL1        0.0264
     47 H          -0.2654   -8.1045  -12.4445 H       1  UNL1        0.0264
     48 H          -2.0679   -6.0369  -11.1479 H       1  UNL1        0.0230
     49 H          -2.0428   -6.6148  -12.8161 H       1  UNL1        0.0230
     50 H          -2.6757   -7.6627  -11.5384 H       1  UNL1        0.0230
     51 H          -2.4523   -3.1709   -0.2515 H       1  UNL1        0.0294
     52 H          -3.3507   -4.5878    0.3538 H       1  UNL1        0.0294
     53 H          -1.8893   -4.8294   -0.5867 H       1  UNL1        0.0294
     54 H          -6.4776   -1.7745   -1.3704 H       1  UNL1        0.0723
     55 H          -7.1593   -3.2763   -0.6911 H       1  UNL1        0.0723
     56 H          -7.7672   -1.4430    0.7892 H       1  UNL1        0.0299
     57 H          -6.6006   -2.4959    1.6056 H       1  UNL1        0.0299
     58 H          -4.7619   -0.8789    1.0663 H       1  UNL1        0.0266
     59 H          -5.9069    0.1344    0.2069 H       1  UNL1        0.0266
     60 H          -5.4759    1.0572    2.4205 H       1  UNL1        0.0266
     61 H          -7.1638    0.6121    2.2440 H       1  UNL1        0.0266
     62 H          -6.3731    0.0424    4.4649 H       1  UNL1        0.0283
     63 H          -6.8344   -1.4138    3.6161 H       1  UNL1        0.0283
     64 H          -4.3684   -1.8514    3.1049 H       1  UNL1        0.0509
     65 H          -3.9559   -0.4046    4.0418 H       1  UNL1        0.0509
     66 H          -4.8761   -4.0020    4.3714 H       1  UNL1        0.0847
     67 H          -4.9852   -5.7161    6.7223 H       1  UNL1        0.0883
     68 H          -3.7767   -5.0240    7.8382 H       1  UNL1        0.0883
     69 H          -5.5431   -3.9706    9.0068 H       1  UNL1        0.2037
     70 H          -5.9950   -5.6543   10.3921 H       1  UNL1        0.0814
     71 H          -4.7129   -6.4324    9.4108 H       1  UNL1        0.0814
     72 H          -7.2312   -4.4213    6.9493 H       1  UNL1        0.0814
     73 H          -7.6714   -3.9181    8.6071 H       1  UNL1        0.0814
     74 H          -8.2668   -6.4806    7.3476 H       1  UNL1        0.0319
     75 H          -8.6742   -5.9488    8.9755 H       1  UNL1        0.0319
     76 H          -6.3284   -7.5695    8.0328 H       1  UNL1        0.0319
     77 H          -7.1519   -7.6364    9.5941 H       1  UNL1        0.0319
@<TRIPOS>UNITY_ATOM_ATTR
33 1
charge 1
@<TRIPOS>BOND
     1     1     2   ar
     2     1     6   ar
     3     1    10   ar
     4     2     3   ar
     5     3     4   ar
     6     4     5   ar
     7     5     6   ar
     8     6     7   ar
     9     7     8   ar
    10     8     9   ar
    11     9    10   ar
    12     8    11    2
    13     4    12    1
    14    12    13    1
    15    13    14    1
    16    14    15    1
    17    15    16    1
    18     9    17    1
    19    17    18    1
    20    17    19    2
    21    19    20    1
    22    20    21    1
    23    21    22    1
    24    22    23    1
    25    23    24    1
    26    24    25    1
    27    25    26    1
    28    26    27    1
    29    29    27   ar
    30    27    30   ar
    31    28    29   ar
    32    28    31   ar
    33    30    31   ar
    34    32    33    1
    35    34    33    1
    36    33    35    1
    37    34    37    1
    38    35    36    1
    39    36    37    1
    40    31    32    1
    41     2    38    1
    42     3    39    1
    43     5    40    1
    44    10    41    1
    45    13    42    1
    46    13    43    1
    47    14    44    1
    48    14    45    1
    49    15    46    1
    50    15    47    1
    51    16    48    1
    52    16    49    1
    53    16    50    1
    54    18    51    1
    55    18    52    1
    56    18    53    1
    57    21    54    1
    58    21    55    1
    59    22    56    1
    60    22    57    1
    61    23    58    1
    62    23    59    1
    63    24    60    1
    64    24    61    1
    65    25    62    1
    66    25    63    1
    67    26    64    1
    68    26    65    1
    69    30    66    1
    70    32    67    1
    71    32    68    1
    72    33    69    1
    73    34    70    1
    74    34    71    1
    75    35    72    1
    76    35    73    1
    77    36    74    1
    78    36    75    1
    79    37    76    1
    80    37    77    1
@<TRIPOS>MOLECULE
mol_757_akc_jfitote2023105499
*****
 35 37 0 0 0
SMALL
GASTEIGER

@<TRIPOS>ATOM
      1 C           1.4578   -1.3100    0.0301 C.ar    1  UNL1        0.2049
      2 C           2.3611   -0.2340    0.0097 C.ar    1  UNL1        0.1657
      3 C           1.9022    1.0864   -0.0068 C.ar    1  UNL1        0.0259
      4 C           0.5340    1.3486    0.0018 C.ar    1  UNL1        0.1349
      5 C          -0.3877    0.2959    0.0212 C.ar    1  UNL1        0.1091
      6 C           0.0728   -1.0274    0.0227 C.ar    1  UNL1        0.1878
      7 O          -0.7930   -2.1088    0.0105 O.2     1  UNL1       -0.4507
      8 C          -1.8461    0.5328    0.0437 C.ar    1  UNL1        0.1967
      9 C          -2.7041   -0.6544   -0.0218 C.ar    1  UNL1        0.0288
     10 C          -2.1568   -1.8765   -0.0582 C.ar    1  UNL1        0.1395
     11 O          -2.3738    1.6351    0.1094 O.2     1  UNL1       -0.2869
     12 O           3.7153   -0.4326   -0.0001 O.3     1  UNL1       -0.5031
     13 O           0.1154    2.6477   -0.0206 O.3     1  UNL1       -0.5058
     14 O           1.7685   -2.6467    0.0568 O.3     1  UNL1       -0.4885
     15 C           3.1352   -3.0339    0.0695 C.3     1  UNL1        0.0791
     16 C          -3.0150   -3.0803   -0.1378 C.ar    1  UNL1        0.0211
     17 C          -4.2258   -3.0562   -0.8553 C.ar    1  UNL1       -0.0059
     18 C          -5.0522   -4.1706   -0.8734 C.ar    1  UNL1        0.1589
     19 C          -4.6900   -5.3368   -0.2104 C.ar    1  UNL1        0.1583
     20 C          -3.4850   -5.4023    0.4758 C.ar    1  UNL1       -0.0159
     21 C          -2.6497   -4.2752    0.5082 C.ar    1  UNL1       -0.0474
     22 O          -5.5591   -6.3904   -0.2644 O.3     1  UNL1       -0.5033
     23 O          -6.2388   -4.1019   -1.5459 O.3     1  UNL1       -0.5033
     24 H           2.6080    1.9108   -0.0260 H       1  UNL1        0.0692
     25 H          -3.7693   -0.4607   -0.0333 H       1  UNL1        0.0693
     26 H           4.1778    0.4203   -0.0571 H       1  UNL1        0.2923
     27 H           0.8649    3.2618   -0.0078 H       1  UNL1        0.2922
     28 H           3.6443   -2.7246   -0.8491 H       1  UNL1        0.0660
     29 H           3.6461   -2.6705    0.9672 H       1  UNL1        0.0660
     30 H           3.1704   -4.1272    0.1028 H       1  UNL1        0.0660
     31 H          -4.5449   -2.1732   -1.4018 H       1  UNL1        0.0662
     32 H          -3.1804   -6.3051    0.9958 H       1  UNL1        0.0655
     33 H          -1.7128   -4.3333    1.0607 H       1  UNL1        0.0626
     34 H          -5.1732   -7.1274    0.2398 H       1  UNL1        0.2923
     35 H          -6.6537   -4.9758   -1.4042 H       1  UNL1        0.2923
@<TRIPOS>BOND
     1     1     2   ar
     2     1     6   ar
     3     2     3   ar
     4     3     4   ar
     5     4     5   ar
     6     7     6   ar
     7     5     6   ar
     8     5     8   ar
     9     7    10   ar
    10     8     9   ar
    11     9    10   ar
    12     8    11    2
    13     2    12    1
    14     4    13    1
    15     1    14    1
    16    14    15    1
    17    10    16    1
    18    16    17   ar
    19    16    21   ar
    20    17    18   ar
    21    18    19   ar
    22    19    20   ar
    23    20    21   ar
    24    19    22    1
    25    18    23    1
    26     3    24    1
    27     9    25    1
    28    12    26    1
    29    13    27    1
    30    15    28    1
    31    15    29    1
    32    15    30    1
    33    17    31    1
    34    20    32    1
    35    21    33    1
    36    22    34    1
    37    23    35    1
@<TRIPOS>MOLECULE
mol_758_akc_biom13040637
*****
 49 52 0 0 0
SMALL
GASTEIGER

@<TRIPOS>ATOM
      1 C          -1.0565    0.3218   -0.0050 C.ar    1  UNL1        0.0719
      2 C          -1.1783    1.2956   -0.9851 C.ar    1  UNL1       -0.0357
      3 C          -0.3542    2.4247   -1.0274 C.ar    1  UNL1       -0.0597
      4 C           0.6283    2.5964   -0.0585 C.ar    1  UNL1       -0.0611
      5 C           0.7741    1.6376    0.9411 C.ar    1  UNL1       -0.0523
      6 C          -0.0609    0.4960    0.9843 C.ar    1  UNL1        0.0033
      7 C           0.0455   -0.5001    1.9725 C.ar    1  UNL1       -0.0393
      8 C          -0.8225   -1.5984    1.9170 C.ar    1  UNL1       -0.0322
      9 C          -1.7932   -1.6957    0.9180 C.ar    1  UNL1        0.0720
     10 N          -1.8922   -0.7371   -0.0361 N.ar    1  UNL1       -0.2467
     11 C           1.0603   -0.4298    3.0821 C.3     1  UNL1       -0.0390
     12 C          -2.7729   -2.8234    0.8384 C.ar    1  UNL1        0.0038
     13 C          -3.6421   -2.9894   -0.2733 C.ar    1  UNL1       -0.0108
     14 C          -2.8778   -3.7796    1.8716 C.ar    1  UNL1       -0.0523
     15 C          -3.7772   -4.8429    1.8112 C.ar    1  UNL1       -0.0577
     16 C          -4.6070   -4.9755    0.7098 C.ar    1  UNL1       -0.0199
     17 C          -4.5527   -4.0527   -0.3336 C.ar    1  UNL1        0.1212
     18 O          -5.3981   -4.3753   -1.3541 O.3     1  UNL1       -0.4902
     19 C          -5.7440   -3.4199   -2.3445 C.3     1  UNL1        0.1075
     20 C          -5.0635   -3.7270   -3.6792 C.3     1  UNL1        0.0605
     21 N          -5.1530   -5.0927   -4.1840 N.ar    1  UNL1       -0.3060
     22 C          -4.1147   -6.0171   -4.1429 C.ar    1  UNL1        0.1083
     23 C          -6.0687   -5.6108   -5.0709 C.ar    1  UNL1        0.2157
     24 C          -5.4610   -6.6787   -5.6796 C.ar    1  UNL1        0.0769
     25 N          -4.2531   -6.9252   -5.0921 N.ar    1  UNL1       -0.2385
     26 N          -7.3793   -5.1204   -5.3016 N.pl3   1  UNL1        0.0750
     27 O          -7.8466   -4.3283   -4.4770 O.2     1  UNL1       -0.1246
     28 O          -7.9635   -5.5465   -6.3042 O.2     1  UNL1       -0.1246
     29 C          -2.9845   -5.9896   -3.1789 C.3     1  UNL1       -0.0062
     30 H          -1.9426    1.1764   -1.7548 H       1  UNL1        0.0639
     31 H          -0.4780    3.1678   -1.8098 H       1  UNL1        0.0618
     32 H           1.2714    3.4700   -0.0757 H       1  UNL1        0.0618
     33 H           1.5481    1.7909    1.6890 H       1  UNL1        0.0624
     34 H          -0.7186   -2.3673    2.6732 H       1  UNL1        0.0642
     35 H           2.0745   -0.4942    2.6751 H       1  UNL1        0.0278
     36 H           0.9477    0.5025    3.6451 H       1  UNL1        0.0278
     37 H           0.9363   -1.2514    3.7957 H       1  UNL1        0.0278
     38 H          -3.5684   -2.2779   -1.0912 H       1  UNL1        0.0661
     39 H          -2.2620   -3.7230    2.7636 H       1  UNL1        0.0624
     40 H          -3.8271   -5.5653    2.6209 H       1  UNL1        0.0619
     41 H          -5.3042   -5.8085    0.6586 H       1  UNL1        0.0654
     42 H          -6.8308   -3.4743   -2.4508 H       1  UNL1        0.0714
     43 H          -5.5372   -2.3880   -2.0383 H       1  UNL1        0.0714
     44 H          -5.4615   -3.0684   -4.4604 H       1  UNL1        0.0526
     45 H          -3.9958   -3.4938   -3.6003 H       1  UNL1        0.0526
     46 H          -5.8348   -7.3001   -6.4837 H       1  UNL1        0.0869
     47 H          -2.6497   -7.0129   -2.9766 H       1  UNL1        0.0307
     48 H          -2.1409   -5.4255   -3.5839 H       1  UNL1        0.0307
     49 H          -3.2717   -5.5570   -2.2224 H       1  UNL1        0.0307
@<TRIPOS>BOND
     1     1     2   ar
     2     1     6   ar
     3     1    10   ar
     4     2     3   ar
     5     3     4   ar
     6     4     5   ar
     7     5     6   ar
     8     6     7   ar
     9     7     8   ar
    10     8     9   ar
    11     9    10   ar
    12     7    11    1
    13     9    12    1
    14    13    12   ar
    15    12    14   ar
    16    13    17   ar
    17    14    15   ar
    18    15    16   ar
    19    16    17   ar
    20    18    19    1
    21    19    20    1
    22    20    21    1
    23    22    21   ar
    24    21    23   ar
    25    22    25   ar
    26    23    24   ar
    27    24    25   ar
    28    23    26    1
    29    26    27    2
    30    26    28    2
    31    22    29    1
    32    17    18    1
    33     2    30    1
    34     3    31    1
    35     4    32    1
    36     5    33    1
    37     8    34    1
    38    11    35    1
    39    11    36    1
    40    11    37    1
    41    13    38    1
    42    14    39    1
    43    15    40    1
    44    16    41    1
    45    19    42    1
    46    19    43    1
    47    20    44    1
    48    20    45    1
    49    24    46    1
    50    29    47    1
    51    29    48    1
    52    29    49    1
@<TRIPOS>MOLECULE
mol_759_akc_biom13040637
*****
 49 52 0 0 0
SMALL
GASTEIGER

@<TRIPOS>ATOM
      1 C          -0.8708    0.2112   -0.7055 C.ar    1  UNL1        0.0719
      2 C          -0.8457    0.8648   -1.9302 C.ar    1  UNL1       -0.0357
      3 C          -0.0916    2.0211   -2.1336 C.ar    1  UNL1       -0.0597
      4 C           0.6667    2.5357   -1.0923 C.ar    1  UNL1       -0.0611
      5 C           0.6636    1.8920    0.1457 C.ar    1  UNL1       -0.0523
      6 C          -0.1071    0.7251    0.3618 C.ar    1  UNL1        0.0033
      7 C          -0.1818    0.0413    1.5991 C.ar    1  UNL1       -0.0393
      8 C          -1.0034   -1.0894    1.7037 C.ar    1  UNL1       -0.0322
      9 C          -1.7343   -1.5173    0.5991 C.ar    1  UNL1        0.0719
     10 N          -1.6473   -0.8742   -0.5901 N.ar    1  UNL1       -0.2467
     11 C           0.5680    0.5154    2.8145 C.3     1  UNL1       -0.0390
     12 C          -2.7421   -2.6011    0.6539 C.ar    1  UNL1        0.0006
     13 C          -3.8398   -2.5725   -0.2243 C.ar    1  UNL1       -0.0491
     14 C          -2.6997   -3.6590    1.5798 C.ar    1  UNL1       -0.0491
     15 C          -3.7467   -4.5942    1.6781 C.ar    1  UNL1       -0.0193
     16 C          -4.8635   -4.4823    0.8544 C.ar    1  UNL1        0.1206
     17 C          -4.8816   -3.4952   -0.1261 C.ar    1  UNL1       -0.0193
     18 O          -6.0052   -5.2226    0.9035 O.3     1  UNL1       -0.4902
     19 C          -6.2126   -6.1484    1.9650 C.3     1  UNL1        0.1075
     20 C          -6.6367   -5.4911    3.2860 C.3     1  UNL1        0.0605
     21 N          -7.8336   -4.6617    3.2426 N.ar    1  UNL1       -0.3060
     22 C          -7.8548   -3.2783    3.4046 C.ar    1  UNL1        0.1083
     23 C          -9.1536   -5.0580    3.2239 C.ar    1  UNL1        0.2157
     24 C          -9.9055   -3.9181    3.3617 C.ar    1  UNL1        0.0769
     25 N          -9.0936   -2.8278    3.4734 N.ar    1  UNL1       -0.2385
     26 N          -9.6454   -6.3874    3.1170 N.pl3   1  UNL1        0.0750
     27 O          -8.8231   -7.3122    3.1278 O.2     1  UNL1       -0.1246
     28 O         -10.8719   -6.5209    3.0362 O.2     1  UNL1       -0.1246
     29 C          -6.6623   -2.3994    3.5500 C.3     1  UNL1       -0.0062
     30 H          -1.4435    0.4674   -2.7473 H       1  UNL1        0.0639
     31 H          -0.1054    2.5140   -3.1018 H       1  UNL1        0.0618
     32 H           1.2551    3.4377   -1.2385 H       1  UNL1        0.0618
     33 H           1.2623    2.3186    0.9459 H       1  UNL1        0.0624
     34 H          -1.1051   -1.5936    2.6574 H       1  UNL1        0.0642
     35 H           1.6472    0.4688    2.6381 H       1  UNL1        0.0278
     36 H           0.2799    1.5420    3.0630 H       1  UNL1        0.0278
     37 H           0.3482   -0.1035    3.6911 H       1  UNL1        0.0278
     38 H          -3.9104   -1.7942   -0.9837 H       1  UNL1        0.0625
     39 H          -1.8488   -3.7704    2.2484 H       1  UNL1        0.0625
     40 H          -3.6566   -5.3811    2.4188 H       1  UNL1        0.0654
     41 H          -5.7281   -3.4174   -0.8044 H       1  UNL1        0.0654
     42 H          -6.9962   -6.8222    1.6082 H       1  UNL1        0.0714
     43 H          -5.3308   -6.7837    2.1101 H       1  UNL1        0.0714
     44 H          -6.8035   -6.2554    4.0529 H       1  UNL1        0.0526
     45 H          -5.8209   -4.8743    3.6706 H       1  UNL1        0.0526
     46 H         -10.9837   -3.8252    3.4073 H       1  UNL1        0.0869
     47 H          -6.8668   -1.4194    3.1059 H       1  UNL1        0.0307
     48 H          -6.4425   -2.2471    4.6117 H       1  UNL1        0.0307
     49 H          -5.7725   -2.7962    3.0624 H       1  UNL1        0.0307
@<TRIPOS>BOND
     1     1     2   ar
     2     1     6   ar
     3     1    10   ar
     4     2     3   ar
     5     3     4   ar
     6     4     5   ar
     7     5     6   ar
     8     6     7   ar
     9     7     8   ar
    10     8     9   ar
    11     9    10   ar
    12     7    11    1
    13     9    12    1
    14    13    12   ar
    15    12    14   ar
    16    13    17   ar
    17    14    15   ar
    18    15    16   ar
    19    16    17   ar
    20    18    19    1
    21    19    20    1
    22    20    21    1
    23    22    21   ar
    24    21    23   ar
    25    22    25   ar
    26    23    24   ar
    27    24    25   ar
    28    23    26    1
    29    26    27    2
    30    26    28    2
    31    22    29    1
    32    16    18    1
    33     2    30    1
    34     3    31    1
    35     4    32    1
    36     5    33    1
    37     8    34    1
    38    11    35    1
    39    11    36    1
    40    11    37    1
    41    13    38    1
    42    14    39    1
    43    15    40    1
    44    17    41    1
    45    19    42    1
    46    19    43    1
    47    20    44    1
    48    20    45    1
    49    24    46    1
    50    29    47    1
    51    29    48    1
    52    29    49    1
@<TRIPOS>MOLECULE
mol_75_akc_1573406414666180226163222
>74.sdf
 44 48 0 0 0
SMALL
GASTEIGER

@<TRIPOS>ATOM
      1 C           1.0240    0.0183    0.0195 C.3     1  UNL1       -0.0396
      2 C           2.5197   -0.0827   -0.0076 C.ar    1  UNL1       -0.0484
      3 C           3.3038    1.0787   -0.0161 C.ar    1  UNL1       -0.0328
      4 C           4.6950    1.0411   -0.0235 C.ar    1  UNL1        0.0725
      5 N           5.3262    2.2213   -0.0455 N.ar    1  UNL1       -0.2459
      6 C           6.6758    2.2475   -0.0386 C.ar    1  UNL1        0.0839
      7 C           7.4310    1.0752    0.0338 C.ar    1  UNL1        0.0598
      8 C           8.8918    1.2956    0.1351 C.2     1  UNL1        0.2356
      9 O           9.6280    0.6486    0.8578 O.2     1  UNL1       -0.2831
     10 C           9.4304    2.4796   -0.6318 C.2     1  UNL1        0.2336
     11 O          10.4296    2.3924   -1.3267 O.2     1  UNL1       -0.2832
     12 C           8.6556    3.7178   -0.4747 C.ar    1  UNL1        0.0347
     13 C           7.2987    3.5883   -0.1263 C.ar    1  UNL1        0.0120
     14 C           6.5874    4.7770    0.0994 C.ar    1  UNL1       -0.0519
     15 C           7.2086    6.0261   -0.0211 C.ar    1  UNL1       -0.0611
     16 C           8.5496    6.1172   -0.3947 C.ar    1  UNL1       -0.0610
     17 C           9.2794    4.9592   -0.6343 C.ar    1  UNL1       -0.0502
     18 C           6.8056   -0.1948    0.0607 C.ar    1  UNL1        0.0043
     19 C           7.6047   -1.4568    0.1792 C.ar    1  UNL1       -0.0164
     20 C           7.2761   -2.4435    1.1314 C.ar    1  UNL1       -0.0518
     21 C           8.0407   -3.6071    1.2922 C.ar    1  UNL1       -0.0309
     22 C           9.2066   -3.7718    0.5423 C.ar    1  UNL1        0.1262
     23 C           9.5696   -2.8146   -0.4068 C.ar    1  UNL1       -0.0309
     24 C           8.7510   -1.6935   -0.6091 C.ar    1  UNL1       -0.0518
     25 N          10.0619   -4.9426    0.7695 N.pl3   1  UNL1        0.0564
     26 O           9.6286   -5.8351    1.5131 O.2     1  UNL1       -0.1261
     27 O          11.1635   -4.9736    0.2030 O.2     1  UNL1       -0.1261
     28 C           5.3681   -0.2055   -0.0048 C.ar    1  UNL1        0.0088
     29 C           4.5573   -1.3682   -0.0642 C.ar    1  UNL1       -0.0517
     30 C           3.1603   -1.3113   -0.0422 C.ar    1  UNL1       -0.0581
     31 H           0.6971    0.5781    0.9019 H       1  UNL1        0.0278
     32 H           0.6631    0.5234   -0.8820 H       1  UNL1        0.0278
     33 H           0.5567   -0.9710    0.0616 H       1  UNL1        0.0278
     34 H           2.8150    2.0502   -0.0157 H       1  UNL1        0.0642
     35 H           5.5348    4.7401    0.3783 H       1  UNL1        0.0624
     36 H           6.6406    6.9337    0.1761 H       1  UNL1        0.0618
     37 H           9.0258    7.0904   -0.4909 H       1  UNL1        0.0618
     38 H          10.3277    5.0180   -0.9177 H       1  UNL1        0.0625
     39 H           6.4123   -2.3157    1.7845 H       1  UNL1        0.0624
     40 H           7.7287   -4.3519    2.0225 H       1  UNL1        0.0640
     41 H          10.4905   -2.9064   -0.9803 H       1  UNL1        0.0640
     42 H           9.0718   -0.9711   -1.3576 H       1  UNL1        0.0624
     43 H           5.0026   -2.3581   -0.1271 H       1  UNL1        0.0624
     44 H           2.5875   -2.2368   -0.0558 H       1  UNL1        0.0620
@<TRIPOS>BOND
     1     1    31    1
     2     1    32    1
     3     1    33    1
     4     2     1    1
     5     3     2   ar
     6     3    34    1
     7     4     3   ar
     8     5     4   ar
     9     6     5   ar
    10     7     6   ar
    11     8     7    1
    12     9     8    2
    13    10     8    1
    14    11    10    2
    15    12    10    1
    16    13    12   ar
    17    13     6    1
    18    14    13   ar
    19    14    35    1
    20    15    14   ar
    21    15    36    1
    22    16    15   ar
    23    16    37    1
    24    17    16   ar
    25    17    12   ar
    26    17    38    1
    27    18     7   ar
    28    19    18    1
    29    20    19   ar
    30    20    39    1
    31    21    20   ar
    32    21    40    1
    33    22    21   ar
    34    23    22   ar
    35    23    41    1
    36    24    23   ar
    37    24    19   ar
    38    24    42    1
    39    25    22    1
    40    26    25    2
    41    27    25    2
    42    28    18   ar
    43    28     4   ar
    44    29    28   ar
    45    29    43    1
    46    30    29   ar
    47    30     2   ar
    48    30    44    1
@<TRIPOS>MOLECULE
mol_760_akc_2208_2360
*****
 52 55 0 0 0
SMALL
GASTEIGER

@<TRIPOS>ATOM
      1 F          -2.4870   -3.7813   -5.0904 F       1  UNL1       -0.2055
      2 C          -2.7042   -3.1136   -3.9517 C.ar    1  UNL1        0.1234
      3 C          -1.8672   -3.3255   -2.8652 C.ar    1  UNL1       -0.0258
      4 C          -2.0741   -2.6019   -1.6906 C.ar    1  UNL1       -0.0485
      5 C          -3.1141   -1.6605   -1.6073 C.ar    1  UNL1        0.0178
      6 C          -3.9739   -1.4851   -2.6990 C.ar    1  UNL1       -0.0485
      7 C          -3.7583   -2.2095   -3.8766 C.ar    1  UNL1       -0.0258
      8 C          -3.1775   -0.8167   -0.3776 C.2     1  UNL1        0.1666
      9 O          -2.3962   -1.0567    0.5496 O.2     1  UNL1       -0.2918
     10 C          -4.0115    0.4677   -0.3491 C.3     1  UNL1        0.0317
     11 C          -3.3935    1.5278   -1.2536 C.3     1  UNL1       -0.0025
     12 C          -1.9637    1.8882   -0.8601 C.3     1  UNL1       -0.0312
     13 N          -1.6303    1.5124    0.5662 N.4     1  UNL1        0.2365
     14 C          -0.3064    2.1536    0.9515 C.3     1  UNL1       -0.0132
     15 C           0.2484    1.7307    2.3213 C.3     1  UNL1        0.0710
     16 N           0.3664    0.2974    2.5588 N.ar    1  UNL1       -0.2554
     17 C           1.2587   -0.4152    1.7803 C.ar    1  UNL1        0.3300
     18 O           1.8004    0.0604    0.7820 O.2     1  UNL1       -0.2465
     19 N           1.5166   -1.7053    2.1527 N.ar    1  UNL1       -0.3070
     20 C           0.9432   -2.3225    3.2620 C.ar    1  UNL1        0.0556
     21 C           1.2969   -3.6247    3.6063 C.ar    1  UNL1       -0.0375
     22 C           0.7135   -4.2268    4.7251 C.ar    1  UNL1       -0.0598
     23 C          -0.2196   -3.5290    5.4935 C.ar    1  UNL1       -0.0609
     24 C          -0.5713   -2.2235    5.1497 C.ar    1  UNL1       -0.0474
     25 C           0.0145   -1.6261    4.0328 C.ar    1  UNL1        0.0630
     26 C          -0.3049   -0.2371    3.6596 C.ar    1  UNL1        0.2644
     27 O          -1.1323    0.3947    4.3071 O.2     1  UNL1       -0.2668
     28 C          -2.7617    1.7341    1.5362 C.3     1  UNL1       -0.0312
     29 C          -4.0633    1.0618    1.0690 C.3     1  UNL1       -0.0025
     30 H          -1.0545   -4.0422   -2.9421 H       1  UNL1        0.0646
     31 H          -1.4015   -2.7675   -0.8499 H       1  UNL1        0.0625
     32 H          -4.8055   -0.7876   -2.6766 H       1  UNL1        0.0625
     33 H          -4.3995   -2.0702   -4.7436 H       1  UNL1        0.0646
     34 H          -5.0370    0.2286   -0.6534 H       1  UNL1        0.0385
     35 H          -3.4079    1.2257   -2.3063 H       1  UNL1        0.0324
     36 H          -4.0117    2.4349   -1.2067 H       1  UNL1        0.0324
     37 H          -1.2466    1.3554   -1.4949 H       1  UNL1        0.0815
     38 H          -1.8051    2.9666   -0.9746 H       1  UNL1        0.0815
     39 H          -1.4601    0.4855    0.6015 H       1  UNL1        0.2034
     40 H           0.3966    1.8962    0.1518 H       1  UNL1        0.0832
     41 H          -0.4571    3.2360    0.9285 H       1  UNL1        0.0832
     42 H           1.2569    2.1548    2.4126 H       1  UNL1        0.0547
     43 H          -0.3430    2.2106    3.1086 H       1  UNL1        0.0547
     44 H           2.1965   -2.2083    1.5938 H       1  UNL1        0.1704
     45 H           2.0258   -4.1847    3.0263 H       1  UNL1        0.0638
     46 H           0.9894   -5.2421    5.0037 H       1  UNL1        0.0618
     47 H          -0.6684   -4.0005    6.3669 H       1  UNL1        0.0618
     48 H          -1.2894   -1.6788    5.7587 H       1  UNL1        0.0626
     49 H          -2.8841    2.8139    1.6600 H       1  UNL1        0.0815
     50 H          -2.4665    1.3004    2.4915 H       1  UNL1        0.0815
     51 H          -4.8570    1.8206    1.1058 H       1  UNL1        0.0324
     52 H          -4.3626    0.2930    1.7927 H       1  UNL1        0.0324
@<TRIPOS>UNITY_ATOM_ATTR
13 1
charge 1
@<TRIPOS>BOND
     1     1     2    1
     2     2     3   ar
     3     3     4   ar
     4     4     5   ar
     5     5     6   ar
     6     6     7   ar
     7     2     7   ar
     8     5     8    1
     9     8     9    2
    10     8    10    1
    11    10    11    1
    12    11    12    1
    13    12    13    1
    14    13    14    1
    15    14    15    1
    16    15    16    1
    17    16    17   ar
    18    17    18    2
    19    17    19   ar
    20    19    20   ar
    21    20    21   ar
    22    21    22   ar
    23    22    23   ar
    24    23    24   ar
    25    24    25   ar
    26    20    25   ar
    27    25    26   ar
    28    16    26   ar
    29    26    27    2
    30    13    28    1
    31    28    29    1
    32    10    29    1
    33     3    30    1
    34     4    31    1
    35     6    32    1
    36     7    33    1
    37    10    34    1
    38    11    35    1
    39    11    36    1
    40    12    37    1
    41    12    38    1
    42    13    39    1
    43    14    40    1
    44    14    41    1
    45    15    42    1
    46    15    43    1
    47    19    44    1
    48    21    45    1
    49    22    46    1
    50    23    47    1
    51    24    48    1
    52    28    49    1
    53    28    50    1
    54    29    51    1
    55    29    52    1
@<TRIPOS>MOLECULE
mol_761_akc_2208_2360
*****
 41 44 0 0 0
SMALL
GASTEIGER

@<TRIPOS>ATOM
      1 C           1.7959    2.2539   -0.1337 C.3     1  UNL1       -0.0430
      2 N           1.0141    1.0165   -0.4664 N.4     1  UNL1        0.2357
      3 C           1.3186   -0.0777    0.5419 C.3     1  UNL1       -0.0160
      4 C           0.0613   -0.8778    0.8802 C.3     1  UNL1        0.0531
      5 N          -0.9227    0.0206    1.5375 N.pl3   1  UNL1       -0.3126
      6 C          -1.3562    1.2078    0.6713 C.3     1  UNL1        0.0891
      7 C          -0.5102    1.2045   -0.6724 C.3     1  UNL1       -0.0089
      8 C          -1.2964    2.5812    1.3559 C.ar    1  UNL1       -0.0186
      9 C          -0.7897    3.7499    0.7472 C.ar    1  UNL1       -0.0563
     10 C          -0.6023    4.9386    1.4554 C.ar    1  UNL1       -0.0614
     11 C          -0.9818    5.0112    2.7838 C.ar    1  UNL1       -0.0615
     12 C          -1.6610    3.9397    3.3490 C.ar    1  UNL1       -0.0579
     13 C          -1.8818    2.7660    2.6122 C.ar    1  UNL1       -0.0379
     14 C          -2.8712    1.7500    3.1112 C.3     1  UNL1       -0.0003
     15 C          -2.2555    0.4754    3.5927 C.ar    1  UNL1       -0.0220
     16 C          -2.6367    0.0925    4.9106 C.ar    1  UNL1       -0.0565
     17 C          -2.2061   -1.0899    5.4848 C.ar    1  UNL1       -0.0614
     18 C          -1.4109   -1.9230    4.7345 C.ar    1  UNL1       -0.0600
     19 C          -1.0415   -1.5524    3.4314 C.ar    1  UNL1       -0.0404
     20 C          -1.4065   -0.3297    2.8058 C.ar    1  UNL1        0.0340
     21 H           2.8570    2.0090   -0.2385 H       1  UNL1        0.0778
     22 H           1.5879    2.5556    0.8946 H       1  UNL1        0.0778
     23 H           1.5348    3.0337   -0.8532 H       1  UNL1        0.0778
     24 H           1.3691    0.6939   -1.3730 H       1  UNL1        0.2032
     25 H           2.0985   -0.7045    0.1032 H       1  UNL1        0.0830
     26 H           1.7078    0.3914    1.4543 H       1  UNL1        0.0830
     27 H           0.4158   -1.7222    1.4654 H       1  UNL1        0.0517
     28 H          -0.3878   -1.3277   -0.0149 H       1  UNL1        0.0517
     29 H          -2.3983    1.0375    0.3712 H       1  UNL1        0.0603
     30 H          -0.6556    2.0727   -1.3197 H       1  UNL1        0.0836
     31 H          -0.8136    0.3454   -1.2843 H       1  UNL1        0.0836
     32 H          -0.5234    3.7975   -0.3021 H       1  UNL1        0.0621
     33 H          -0.1672    5.8068    0.9682 H       1  UNL1        0.0618
     34 H          -0.8169    5.9219    3.3553 H       1  UNL1        0.0618
     35 H          -2.0549    4.0396    4.3599 H       1  UNL1        0.0620
     36 H          -3.6047    1.5229    2.3275 H       1  UNL1        0.0362
     37 H          -3.4712    2.2179    3.9036 H       1  UNL1        0.0362
     38 H          -3.2912    0.7333    5.5007 H       1  UNL1        0.0621
     39 H          -2.5055   -1.3624    6.4925 H       1  UNL1        0.0618
     40 H          -1.0722   -2.8705    5.1463 H       1  UNL1        0.0618
     41 H          -0.4556   -2.3184    2.9405 H       1  UNL1        0.0636
@<TRIPOS>UNITY_ATOM_ATTR
2 1
charge 1
@<TRIPOS>BOND
     1     2     3    1
     2     3     4    1
     3     4     5    1
     4     5     6    1
     5     6     7    1
     6     2     7    1
     7     6     8    1
     8     8     9   ar
     9     9    10   ar
    10    10    11   ar
    11    11    12   ar
    12    12    13   ar
    13     8    13   ar
    14    13    14    1
    15    14    15    1
    16    15    16   ar
    17    16    17   ar
    18    17    18   ar
    19    18    19   ar
    20    19    20   ar
    21     5    20    1
    22    15    20   ar
    23     1    21    1
    24     1    22    1
    25     1    23    1
    26     3    25    1
    27     3    26    1
    28     4    27    1
    29     4    28    1
    30     6    29    1
    31     7    30    1
    32     7    31    1
    33     9    32    1
    34    10    33    1
    35    11    34    1
    36    12    35    1
    37    14    36    1
    38    14    37    1
    39    16    38    1
    40    17    39    1
    41    18    40    1
    42    19    41    1
    43     2    24    1
    44     2     1    1
@<TRIPOS>MOLECULE
mol_762_akc_jrechem2023100943
*****
 49 53 0 0 0
SMALL
GASTEIGER

@<TRIPOS>ATOM
      1 C          -0.5079   -0.7001   -1.1344 C.ar    1  UNL1       -0.0092
      2 C           0.2294   -1.3239   -2.1742 C.ar    1  UNL1       -0.0534
      3 C           0.8987   -0.5806   -3.1511 C.ar    1  UNL1       -0.0611
      4 C           0.8487    0.8055   -3.1233 C.ar    1  UNL1       -0.0612
      5 C           0.1296    1.4492   -2.1190 C.ar    1  UNL1       -0.0540
      6 C          -0.5469    0.7187   -1.1282 C.ar    1  UNL1       -0.0173
      7 C          -1.2749    1.4013   -0.1406 C.ar    1  UNL1       -0.0540
      8 C          -1.9713    0.7127    0.8473 C.ar    1  UNL1       -0.0606
      9 C          -1.9536   -0.6765    0.8570 C.ar    1  UNL1       -0.0525
     10 C          -1.2378   -1.3819   -0.1165 C.ar    1  UNL1        0.0025
     11 C          -1.3442   -2.8621   -0.1001 C.2     1  UNL1        0.0577
     12 N          -2.3223   -3.4445    0.5198 N.2     1  UNL1       -0.1546
     13 N          -2.3356   -4.8121    0.3022 N.2     1  UNL1       -0.1235
     14 C          -3.5159   -5.3271    0.1653 C.ar    1  UNL1        0.1994
     15 C          -5.2521   -7.1787    0.0476 C.ar    1  UNL1        0.0036
     16 S          -3.5166   -7.1368    0.0595 S.2     1  UNL1       -0.0554
     17 N          -4.8547   -4.8800    0.1065 N.ar    1  UNL1       -0.2867
     18 C          -5.7830   -5.9452    0.0680 C.ar    1  UNL1        0.0628
     19 C          -7.2379   -5.7745   -0.0024 C.ar    1  UNL1       -0.0005
     20 C          -8.0106   -5.8244    1.1678 C.ar    1  UNL1       -0.0512
     21 C          -9.3869   -5.5923    1.1139 C.ar    1  UNL1       -0.0428
     22 C          -9.9979   -5.3436   -0.1136 C.ar    1  UNL1        0.0410
     23 C          -9.2480   -5.3383   -1.2887 C.ar    1  UNL1       -0.0428
     24 C          -7.8684   -5.5535   -1.2338 C.ar    1  UNL1       -0.0512
     25 C          -5.2249   -3.5129   -0.0853 C.ar    1  UNL1        0.0491
     26 C          -4.6046   -2.7207   -1.0662 C.ar    1  UNL1       -0.0378
     27 C          -4.9353   -1.3712   -1.2346 C.ar    1  UNL1       -0.0598
     28 C          -5.9408   -0.7984   -0.4632 C.ar    1  UNL1       -0.0616
     29 C          -6.6023   -1.5702    0.4853 C.ar    1  UNL1       -0.0598
     30 C          -6.2318   -2.9047    0.6842 C.ar    1  UNL1       -0.0378
     31 CL        -11.6881   -5.0291   -0.1767 Cl      1  UNL1       -0.0835
     32 H           0.2959   -2.4058   -2.2466 H       1  UNL1        0.0624
     33 H           1.4564   -1.0893   -3.9337 H       1  UNL1        0.0618
     34 H           1.3636    1.3874   -3.8835 H       1  UNL1        0.0618
     35 H           0.0972    2.5371   -2.1187 H       1  UNL1        0.0624
     36 H          -1.3121    2.4899   -0.1384 H       1  UNL1        0.0624
     37 H          -2.5389    1.2538    1.5989 H       1  UNL1        0.0618
     38 H          -2.5203   -1.2069    1.6200 H       1  UNL1        0.0624
     39 H          -0.6104   -3.4578   -0.6664 H       1  UNL1        0.0854
     40 H          -5.8046   -8.1077   -0.0001 H       1  UNL1        0.0715
     41 H          -7.5374   -6.0017    2.1319 H       1  UNL1        0.0625
     42 H          -9.9707   -5.5922    2.0306 H       1  UNL1        0.0632
     43 H          -9.7264   -5.1524   -2.2465 H       1  UNL1        0.0632
     44 H          -7.2868   -5.5274   -2.1530 H       1  UNL1        0.0625
     45 H          -3.8234   -3.1444   -1.6925 H       1  UNL1        0.0638
     46 H          -4.3938   -0.7679   -1.9586 H       1  UNL1        0.0618
     47 H          -6.2020    0.2480   -0.5951 H       1  UNL1        0.0618
     48 H          -7.3968   -1.1343    1.0853 H       1  UNL1        0.0618
     49 H          -6.7319   -3.4568    1.4727 H       1  UNL1        0.0638
@<TRIPOS>BOND
     1     1     2   ar
     2     1     6   ar
     3     1    10   ar
     4     2     3   ar
     5     3     4   ar
     6     4     5   ar
     7     5     6   ar
     8     6     7   ar
     9     7     8   ar
    10     8     9   ar
    11     9    10   ar
    12    10    11    1
    13    11    12    2
    14    12    13    1
    15    13    14    2
    16    16    14   ar
    17    14    17   ar
    18    15    16   ar
    19    15    18   ar
    20    17    18   ar
    21    18    19    1
    22    19    20   ar
    23    19    24   ar
    24    20    21   ar
    25    21    22   ar
    26    22    23   ar
    27    23    24   ar
    28    17    25    1
    29    25    26   ar
    30    25    30   ar
    31    26    27   ar
    32    27    28   ar
    33    28    29   ar
    34    29    30   ar
    35    22    31    1
    36     2    32    1
    37     3    33    1
    38     4    34    1
    39     5    35    1
    40     7    36    1
    41     8    37    1
    42     9    38    1
    43    11    39    1
    44    15    40    1
    45    20    41    1
    46    21    42    1
    47    23    43    1
    48    24    44    1
    49    26    45    1
    50    27    46    1
    51    28    47    1
    52    29    48    1
    53    30    49    1
@<TRIPOS>MOLECULE
mol_763_akc_acsinfecdis3c00090
*****
 48 50 0 0 0
SMALL
GASTEIGER

@<TRIPOS>ATOM
      1 C           0.0865   -5.2902    0.8576 C.3     1  UNL1        0.0790
      2 O          -0.3186   -3.9388    1.0381 O.3     1  UNL1       -0.4913
      3 C           0.4687   -3.1385    1.8268 C.ar    1  UNL1        0.1658
      4 C           1.8196   -3.4202    2.0820 C.ar    1  UNL1       -0.0053
      5 C           2.6262   -2.5302    2.8026 C.ar    1  UNL1        0.0271
      6 C           2.0597   -1.3495    3.2930 C.ar    1  UNL1       -0.0053
      7 C           0.7224   -1.0387    3.0346 C.ar    1  UNL1        0.1658
      8 O           0.1259    0.1128    3.4918 O.3     1  UNL1       -0.4913
      9 C           0.9747    1.2521    3.5853 C.3     1  UNL1        0.0790
     10 C          -0.0865   -1.9406    2.3165 C.ar    1  UNL1        0.2035
     11 O          -1.3740   -1.5083    2.0900 O.3     1  UNL1       -0.4885
     12 C          -2.3875   -2.5036    2.0535 C.3     1  UNL1        0.0791
     13 C           4.0474   -2.7790    2.9847 C.ar    1  UNL1        0.1680
     14 C           5.1358   -1.9770    3.2249 C.ar    1  UNL1        0.0130
     15 C           6.2479   -2.8559    3.2559 C.ar    1  UNL1        0.1140
     16 N           5.8416   -4.1223    3.0716 N.ar    1  UNL1       -0.0776
     17 O           4.4722   -4.0691    2.8937 O.2     1  UNL1       -0.3541
     18 C           7.6514   -2.5089    3.4672 C.ar    1  UNL1        0.0073
     19 C           8.5427   -3.4508    4.0046 C.ar    1  UNL1       -0.0070
     20 C           9.8895   -3.1317    4.2558 C.ar    1  UNL1        0.1621
     21 O          10.7764   -4.0323    4.7826 O.3     1  UNL1       -0.4914
     22 C          10.3043   -5.3353    5.1042 C.3     1  UNL1        0.0790
     23 C          10.3469   -1.8370    3.9562 C.ar    1  UNL1        0.1615
     24 O          11.5975   -1.3028    4.1257 O.3     1  UNL1       -0.4915
     25 C          12.5981   -2.0849    4.7589 C.3     1  UNL1        0.0790
     26 C           9.4579   -0.9062    3.3993 C.ar    1  UNL1       -0.0157
     27 C           8.1249   -1.2330    3.1558 C.ar    1  UNL1       -0.0488
     28 H          -0.7062   -5.8017    0.3032 H       1  UNL1        0.0660
     29 H           0.2049   -5.7980    1.8204 H       1  UNL1        0.0660
     30 H           0.9986   -5.3571    0.2567 H       1  UNL1        0.0660
     31 H           2.2804   -4.3181    1.6793 H       1  UNL1        0.0662
     32 H           2.6686   -0.6744    3.8854 H       1  UNL1        0.0662
     33 H           1.5766    1.2105    4.4985 H       1  UNL1        0.0660
     34 H           1.6129    1.3587    2.7010 H       1  UNL1        0.0660
     35 H           0.3385    2.1407    3.6461 H       1  UNL1        0.0660
     36 H          -2.5084   -2.8859    1.0357 H       1  UNL1        0.0660
     37 H          -2.2073   -3.3142    2.7679 H       1  UNL1        0.0660
     38 H          -3.3313   -2.0246    2.3319 H       1  UNL1        0.0660
     39 H           5.1334   -0.9047    3.3468 H       1  UNL1        0.0678
     40 H           8.1550   -4.4391    4.2295 H       1  UNL1        0.0662
     41 H           9.5272   -5.2947    5.8765 H       1  UNL1        0.0660
     42 H           9.9529   -5.8607    4.2096 H       1  UNL1        0.0660
     43 H          11.1468   -5.9033    5.5120 H       1  UNL1        0.0660
     44 H          12.2980   -2.3837    5.7680 H       1  UNL1        0.0660
     45 H          12.8775   -2.9422    4.1383 H       1  UNL1        0.0660
     46 H          13.4890   -1.4573    4.8619 H       1  UNL1        0.0660
     47 H           9.8180    0.0925    3.1568 H       1  UNL1        0.0655
     48 H           7.4789   -0.4793    2.7150 H       1  UNL1        0.0625
@<TRIPOS>BOND
     1     1     2    1
     2     2     3    1
     3     3     4   ar
     4     4     5   ar
     5     5     6   ar
     6     6     7   ar
     7     7     8    1
     8     8     9    1
     9     7    10   ar
    10     3    10   ar
    11    10    11    1
    12    11    12    1
    13     5    13    1
    14    13    14   ar
    15    14    15   ar
    16    15    16   ar
    17    16    17   ar
    18    13    17   ar
    19    15    18    1
    20    18    19   ar
    21    19    20   ar
    22    20    21    1
    23    21    22    1
    24    20    23   ar
    25    23    24    1
    26    24    25    1
    27    23    26   ar
    28    26    27   ar
    29    18    27   ar
    30     1    28    1
    31     1    29    1
    32     1    30    1
    33     4    31    1
    34     6    32    1
    35     9    33    1
    36     9    34    1
    37     9    35    1
    38    12    36    1
    39    12    37    1
    40    12    38    1
    41    14    39    1
    42    19    40    1
    43    22    41    1
    44    22    42    1
    45    22    43    1
    46    25    44    1
    47    25    45    1
    48    25    46    1
    49    26    47    1
    50    27    48    1
@<TRIPOS>MOLECULE
mol_764_akc_jejmech2023115451
*****
 45 48 0 0 0
SMALL
GASTEIGER

@<TRIPOS>ATOM
      1 O          -0.2161    0.7783    0.8619 O.2     1  UNL1       -0.3572
      2 N          -0.1916   -0.5584    1.1873 N.ar    1  UNL1       -0.0780
      3 C          -0.2647   -1.2366    0.0308 C.ar    1  UNL1        0.1136
      4 C          -0.3291   -0.3301   -1.0609 C.ar    1  UNL1        0.0100
      5 C          -0.2951    0.9186   -0.4868 C.ar    1  UNL1        0.1576
      6 C          -0.2785   -2.6976    0.0086 C.ar    1  UNL1        0.0038
      7 C          -0.9083   -3.4041   -1.0206 C.ar    1  UNL1       -0.0507
      8 C          -0.9662   -4.8069   -0.9967 C.ar    1  UNL1       -0.0400
      9 C          -0.4036   -5.5417    0.0549 C.ar    1  UNL1        0.0300
     10 C           0.2633   -4.8207    1.0575 C.ar    1  UNL1       -0.0400
     11 C           0.3218   -3.4236    1.0412 C.ar    1  UNL1       -0.0507
     12 C          -1.2134   -7.4201    1.3303 C.3     1  UNL1        0.0524
     13 C          -0.8786   -8.9012    1.5948 C.3     1  UNL1       -0.0175
     14 N          -1.0957   -9.7298    0.3493 N.4     1  UNL1        0.2292
     15 C          -0.3475   -9.1869   -0.8476 C.3     1  UNL1       -0.0175
     16 C          -0.7131   -7.7081   -1.0859 C.3     1  UNL1        0.0524
     17 N          -0.4623   -6.9395    0.1467 N.pl3   1  UNL1       -0.3198
     18 C          -0.3007    2.3077   -0.9931 C.3     1  UNL1        0.0908
     19 N          -1.6616    2.7973   -1.1543 N.ar    1  UNL1       -0.2645
     20 C          -2.4808    2.7838   -2.2552 C.ar    1  UNL1        0.4506
     21 N          -3.6333    3.3851   -2.0171 N.ar    1  UNL1       -0.1715
     22 C          -3.5642    3.7988   -0.7147 C.ar    1  UNL1        0.0522
     23 C          -2.3594    3.4450   -0.1559 C.ar    1  UNL1        0.0309
     24 N          -2.1748    2.1761   -3.5260 N.pl3   1  UNL1        0.1195
     25 O          -1.1111    1.5454   -3.6175 O.2     1  UNL1        0.0446
     26 O          -3.0008    2.3041   -4.4351 O.co2   1  UNL1       -0.5735
     27 H          -0.3781   -0.5592   -2.1152 H       1  UNL1        0.0675
     28 H          -1.3890   -2.8784   -1.8433 H       1  UNL1        0.0625
     29 H          -1.4941   -5.2951   -1.8105 H       1  UNL1        0.0636
     30 H           0.7664   -5.3424    1.8681 H       1  UNL1        0.0636
     31 H           0.8444   -2.9085    1.8455 H       1  UNL1        0.0625
     32 H          -2.2910   -7.3104    1.1489 H       1  UNL1        0.0516
     33 H          -0.9731   -6.8540    2.2373 H       1  UNL1        0.0516
     34 H           0.1725   -9.0280    1.8746 H       1  UNL1        0.0829
     35 H          -1.5193   -9.3250    2.3735 H       1  UNL1        0.0829
     36 H          -0.7939  -10.6955    0.5286 H       1  UNL1        0.2015
     37 H          -2.1005   -9.7657    0.1361 H       1  UNL1        0.2015
     38 H          -0.6201   -9.8121   -1.7025 H       1  UNL1        0.0829
     39 H           0.7188   -9.3056   -0.6287 H       1  UNL1        0.0829
     40 H          -1.7690   -7.6330   -1.3742 H       1  UNL1        0.0516
     41 H          -0.0981   -7.3339   -1.9129 H       1  UNL1        0.0516
     42 H           0.1962    2.9736   -0.2766 H       1  UNL1        0.0576
     43 H           0.2463    2.4180   -1.9311 H       1  UNL1        0.0576
     44 H          -4.3855    4.3284   -0.2462 H       1  UNL1        0.0847
     45 H          -1.9524    3.5929    0.8364 H       1  UNL1        0.0827
@<TRIPOS>UNITY_ATOM_ATTR
14 1
charge 1
24 1
charge 1
26 1
charge -1
@<TRIPOS>BOND
     1     1     2   ar
     2     2     3   ar
     3     3     4   ar
     4     4     5   ar
     5     1     5   ar
     6     6     7   ar
     7     7     8   ar
     8     8     9   ar
     9     9    10   ar
    10    10    11   ar
    11     6    11   ar
    12    12    13    1
    13    13    14    1
    14    14    15    1
    15    15    16    1
    16    16    17    1
    17    12    17    1
    18     9    17    1
    19     3     6    1
    20    19    20   ar
    21    20    21   ar
    22    21    22   ar
    23    22    23   ar
    24    19    23   ar
    25    24    25    2
    26    24    26    1
    27    20    24    1
    28    18    19    1
    29     5    18    1
    30     4    27    1
    31     7    28    1
    32     8    29    1
    33    10    30    1
    34    11    31    1
    35    12    32    1
    36    12    33    1
    37    13    34    1
    38    13    35    1
    39    14    36    1
    40    14    37    1
    41    15    38    1
    42    15    39    1
    43    16    40    1
    44    16    41    1
    45    18    42    1
    46    18    43    1
    47    22    44    1
    48    23    45    1
@<TRIPOS>MOLECULE
mol_765_akc_jejmech2023115451
*****
 51 54 0 0 0
SMALL
GASTEIGER

@<TRIPOS>ATOM
      1 O          -0.9254    0.8597   -0.0509 O.2     1  UNL1       -0.3572
      2 N          -1.3069   -0.4392   -0.3092 N.ar    1  UNL1       -0.0780
      3 C          -0.3591   -1.2278    0.2215 C.ar    1  UNL1        0.1136
      4 C           0.6617   -0.4351    0.8088 C.ar    1  UNL1        0.0100
      5 C           0.2557    0.8630    0.6205 C.ar    1  UNL1        0.1576
      6 C           0.7961    2.1878    0.9907 C.3     1  UNL1        0.0908
      7 N           1.6680    2.7026   -0.0524 N.ar    1  UNL1       -0.2645
      8 C           3.0226    2.5655   -0.2224 C.ar    1  UNL1        0.4506
      9 N           3.4566    3.2294   -1.2772 N.ar    1  UNL1       -0.1715
     10 C           2.3442    3.8167   -1.8172 C.ar    1  UNL1        0.0522
     11 C           1.2258    3.5059   -1.0825 C.ar    1  UNL1        0.0309
     12 N           3.9017    1.7854    0.6139 N.pl3   1  UNL1        0.1195
     13 O           3.3877    1.1315    1.5341 O.2     1  UNL1        0.0446
     14 O           5.1094    1.8038    0.3527 O.co2   1  UNL1       -0.5735
     15 C          -0.4335   -2.6842    0.1462 C.ar    1  UNL1        0.0038
     16 C          -1.1337   -3.3048   -0.8932 C.ar    1  UNL1       -0.0507
     17 C          -1.1461   -4.6979   -1.0110 C.ar    1  UNL1       -0.0400
     18 C          -0.4471   -5.5064   -0.1056 C.ar    1  UNL1        0.0299
     19 C           0.1933   -4.8826    0.9738 C.ar    1  UNL1       -0.0400
     20 C           0.2082   -3.4882    1.0957 C.ar    1  UNL1       -0.0507
     21 C          -0.2680   -7.3610   -1.6514 C.3     1  UNL1        0.0172
     22 N          -0.3218   -6.9027   -0.2539 N.pl3   1  UNL1       -0.3246
     23 C          -1.2662   -7.6410    0.6083 C.3     1  UNL1        0.0523
     24 C          -0.6146   -8.8597    1.2979 C.3     1  UNL1       -0.0161
     25 N           0.5599   -9.4934    0.5723 N.4     1  UNL1        0.2342
     26 C           0.3481   -9.7297   -0.9039 C.3     1  UNL1       -0.0307
     27 C           0.6806   -8.5402   -1.7897 C.3     1  UNL1        0.0032
     28 C           1.8760   -8.8474    0.9272 C.3     1  UNL1       -0.0430
     29 H           1.5656   -0.7694    1.2964 H       1  UNL1        0.0675
     30 H          -0.0215    2.9083    1.1160 H       1  UNL1        0.0576
     31 H           1.3304    2.1734    1.9432 H       1  UNL1        0.0576
     32 H           2.4060    4.4310   -2.7078 H       1  UNL1        0.0847
     33 H           0.1842    3.7768   -1.2031 H       1  UNL1        0.0827
     34 H          -1.6555   -2.7082   -1.6400 H       1  UNL1        0.0625
     35 H          -1.6994   -5.1293   -1.8407 H       1  UNL1        0.0636
     36 H           0.7286   -5.4750    1.7100 H       1  UNL1        0.0636
     37 H           0.7381   -3.0439    1.9351 H       1  UNL1        0.0625
     38 H          -1.2678   -7.6208   -2.0221 H       1  UNL1        0.0465
     39 H           0.1269   -6.5782   -2.3131 H       1  UNL1        0.0465
     40 H          -1.6956   -7.0084    1.3968 H       1  UNL1        0.0516
     41 H          -2.1235   -7.9836    0.0145 H       1  UNL1        0.0516
     42 H          -0.2579   -8.5890    2.2978 H       1  UNL1        0.0830
     43 H          -1.3623   -9.6529    1.4265 H       1  UNL1        0.0830
     44 H           0.6316  -10.4350    0.9762 H       1  UNL1        0.2031
     45 H           1.0048  -10.5662   -1.1654 H       1  UNL1        0.0815
     46 H          -0.6862  -10.0665   -1.0390 H       1  UNL1        0.0815
     47 H           0.6488   -8.8725   -2.8348 H       1  UNL1        0.0332
     48 H           1.7112   -8.2072   -1.6197 H       1  UNL1        0.0332
     49 H           2.0337   -8.9858    2.0004 H       1  UNL1        0.0777
     50 H           2.6666   -9.3596    0.3733 H       1  UNL1        0.0777
     51 H           1.8535   -7.7843    0.6856 H       1  UNL1        0.0777
@<TRIPOS>UNITY_ATOM_ATTR
12 1
charge 1
14 1
charge -1
25 1
charge 1
@<TRIPOS>BOND
     1     1     2   ar
     2     2     3   ar
     3     3     4   ar
     4     4     5   ar
     5     1     5   ar
     6     7     8   ar
     7     8     9   ar
     8     9    10   ar
     9    10    11   ar
    10     7    11   ar
    11    12    13    2
    12    12    14    1
    13     8    12    1
    14     6     7    1
    15     5     6    1
    16    15    16   ar
    17    16    17   ar
    18    17    18   ar
    19    18    19   ar
    20    19    20   ar
    21    15    20   ar
    22    21    22    1
    23    22    23    1
    24    23    24    1
    25    24    25    1
    26    25    26    1
    27    26    27    1
    28    21    27    1
    29    25    28    1
    30    18    22    1
    31     3    15    1
    32     4    29    1
    33     6    30    1
    34     6    31    1
    35    10    32    1
    36    11    33    1
    37    16    34    1
    38    17    35    1
    39    19    36    1
    40    20    37    1
    41    21    38    1
    42    21    39    1
    43    23    40    1
    44    23    41    1
    45    24    42    1
    46    24    43    1
    47    25    44    1
    48    26    45    1
    49    26    46    1
    50    27    47    1
    51    27    48    1
    52    28    49    1
    53    28    50    1
    54    28    51    1
@<TRIPOS>MOLECULE
mol_766_akc_jejmech2023115451
3-(2-Chloro-3,5-dimethoxyphenyl)-5-((2-nitro-1H-imidazole-1-yl)methyl)isoxazole
 38 40 0 0 0
SMALL
GASTEIGER

@<TRIPOS>ATOM
      1 O           0.5256    0.8816    0.0043 O.2     1  UNL1       -0.3572
      2 N           0.8952   -0.4433    0.0043 N.ar    1  UNL1       -0.0779
      3 C          -0.2327   -1.1629    0.1066 C.ar    1  UNL1        0.1153
      4 C          -1.3545   -0.2862    0.1632 C.ar    1  UNL1        0.0100
      5 C          -0.8270    0.9780    0.0629 C.ar    1  UNL1        0.1576
      6 C          -1.3864    2.3403   -0.0514 C.3     1  UNL1        0.0908
      7 N          -1.6946    2.8954    1.2552 N.ar    1  UNL1       -0.2645
      8 C          -2.8593    2.8587    1.9793 C.ar    1  UNL1        0.4506
      9 N          -2.7621    3.5461    3.1019 N.ar    1  UNL1       -0.1715
     10 C          -1.4855    4.0399    3.1157 C.ar    1  UNL1        0.0522
     11 C          -0.8047    3.6554    1.9846 C.ar    1  UNL1        0.0309
     12 N          -4.0637    2.1608    1.6008 N.pl3   1  UNL1        0.1195
     13 O          -4.0394    1.4959    0.5579 O.2     1  UNL1        0.0446
     14 O          -5.0448    2.2696    2.3474 O.co2   1  UNL1       -0.5735
     15 C          -0.2445   -2.6309    0.0207 C.ar    1  UNL1        0.0290
     16 C           0.7450   -3.4685    0.6001 C.ar    1  UNL1        0.0920
     17 C           0.7044   -4.8561    0.3542 C.ar    1  UNL1        0.1424
     18 C          -0.3516   -5.3797   -0.4148 C.ar    1  UNL1        0.0232
     19 C          -1.3588   -4.5757   -0.9390 C.ar    1  UNL1        0.1243
     20 C          -1.2943   -3.2061   -0.7280 C.ar    1  UNL1       -0.0090
     21 O           1.5342   -5.8661    0.7621 O.3     1  UNL1       -0.4935
     22 C           2.7678   -5.6024    1.4051 C.3     1  UNL1        0.0789
     23 O          -2.3267   -5.2352   -1.6420 O.3     1  UNL1       -0.4950
     24 C          -3.4150   -4.4604   -2.1336 C.3     1  UNL1        0.0788
     25 CL          1.9083   -2.7613    1.6816 Cl      1  UNL1       -0.0791
     26 H          -2.4011   -0.5523    0.2088 H       1  UNL1        0.0675
     27 H          -0.6559    3.0111   -0.5222 H       1  UNL1        0.0576
     28 H          -2.2726    2.3783   -0.6883 H       1  UNL1        0.0576
     29 H          -1.1253    4.6485    3.9347 H       1  UNL1        0.0847
     30 H           0.2060    3.8501    1.6489 H       1  UNL1        0.0827
     31 H          -0.3890   -6.4530   -0.6007 H       1  UNL1        0.0691
     32 H          -2.0490   -2.5580   -1.1619 H       1  UNL1        0.0661
     33 H           3.3958   -4.9207    0.8241 H       1  UNL1        0.0660
     34 H           2.6026   -5.2575    2.4293 H       1  UNL1        0.0660
     35 H           3.3099   -6.5509    1.4788 H       1  UNL1        0.0660
     36 H          -3.9640   -3.9851   -1.3134 H       1  UNL1        0.0660
     37 H          -3.0722   -3.7173   -2.8612 H       1  UNL1        0.0660
     38 H          -4.1039   -5.1362   -2.6491 H       1  UNL1        0.0660
@<TRIPOS>UNITY_ATOM_ATTR
12 1
charge 1
14 1
charge -1
@<TRIPOS>BOND
     1     1     2   ar
     2     2     3   ar
     3     3     4   ar
     4     4     5   ar
     5     1     5   ar
     6     7     8   ar
     7     8     9   ar
     8     9    10   ar
     9    10    11   ar
    10     7    11   ar
    11    12    13    2
    12    12    14    1
    13     8    12    1
    14     6     7    1
    15     5     6    1
    16    15    16   ar
    17    16    17   ar
    18    17    18   ar
    19    18    19   ar
    20    19    20   ar
    21    15    20   ar
    22    21    22    1
    23    17    21    1
    24    23    24    1
    25    19    23    1
    26    16    25    1
    27     3    15    1
    28     4    26    1
    29     6    27    1
    30     6    28    1
    31    10    29    1
    32    11    30    1
    33    18    31    1
    34    20    32    1
    35    22    33    1
    36    22    34    1
    37    22    35    1
    38    24    36    1
    39    24    37    1
    40    24    38    1
@<TRIPOS>MOLECULE
mol_767_akc_jbioorg2023106593
(9H-fluoren-9-yl)methyl-4-(4-(trifluoromethyl)phenyl)piperazine-1-carboxylate
 56 60 0 0 0
SMALL
GASTEIGER

@<TRIPOS>ATOM
      1 C           0.5033   -1.2202   -0.2195 C.3     1  UNL1        0.0336
      2 C          -0.9027   -0.6985   -0.5822 C.3     1  UNL1        0.0281
      3 N          -1.3113    0.3844    0.3275 N.pl3   1  UNL1       -0.3269
      4 C          -0.3600    1.5087    0.4133 C.3     1  UNL1        0.0281
      5 C           1.0491    0.9879    0.7644 C.3     1  UNL1        0.0336
      6 N           1.4709   -0.1209   -0.0953 N.am    1  UNL1       -0.2645
      7 C           2.6824   -0.0797   -0.7535 C.2     1  UNL1        0.4030
      8 O           3.4020    0.9059   -0.8147 O.2     1  UNL1       -0.2263
      9 O           2.9730   -1.2611   -1.3554 O.3     1  UNL1       -0.4493
     10 C           3.9472   -1.2352   -2.4117 C.3     1  UNL1        0.1048
     11 C           5.4189   -1.0799   -1.9972 C.3     1  UNL1        0.0446
     12 C           5.9521   -2.2309   -1.1487 C.ar    1  UNL1       -0.0290
     13 C           5.5864   -2.5939    0.1383 C.ar    1  UNL1       -0.0573
     14 C           6.2288   -3.6872    0.7235 C.ar    1  UNL1       -0.0614
     15 C           7.2230   -4.3954    0.0282 C.ar    1  UNL1       -0.0612
     16 C           7.6063   -4.0102   -1.2592 C.ar    1  UNL1       -0.0537
     17 C           6.9743   -2.9223   -1.8382 C.ar    1  UNL1       -0.0137
     18 C           7.1876   -2.2890   -3.1217 C.ar    1  UNL1       -0.0137
     19 C           8.0639   -2.6057   -4.1466 C.ar    1  UNL1       -0.0537
     20 C           8.0520   -1.8196   -5.3040 C.ar    1  UNL1       -0.0612
     21 C           7.1758   -0.7296   -5.4199 C.ar    1  UNL1       -0.0614
     22 C           6.2980   -0.4026   -4.3836 C.ar    1  UNL1       -0.0573
     23 C           6.3080   -1.1914   -3.2412 C.ar    1  UNL1       -0.0290
     24 C          -2.4383    0.3187    1.1209 C.ar    1  UNL1        0.0298
     25 C          -2.9272   -0.8957    1.6222 C.ar    1  UNL1       -0.0401
     26 C          -4.0639   -0.9596    2.4416 C.ar    1  UNL1       -0.0484
     27 C          -4.7617    0.2023    2.7839 C.ar    1  UNL1        0.0549
     28 C          -4.2977    1.4224    2.2835 C.ar    1  UNL1       -0.0484
     29 C          -3.1578    1.4724    1.4690 C.ar    1  UNL1       -0.0401
     30 C          -5.9810    0.1582    3.6694 C.3     1  UNL1        0.4174
     31 F          -6.3154   -1.0982    4.0775 F       1  UNL1       -0.1659
     32 F          -5.8244    0.8889    4.8088 F       1  UNL1       -0.1659
     33 F          -7.0905    0.6574    3.0567 F       1  UNL1       -0.1659
     34 H           0.4778   -1.7364    0.7453 H       1  UNL1        0.0481
     35 H           0.8169   -1.9409   -0.9809 H       1  UNL1        0.0481
     36 H          -1.6154   -1.5290   -0.6114 H       1  UNL1        0.0479
     37 H          -0.8793   -0.2870   -1.6000 H       1  UNL1        0.0479
     38 H          -0.3371    2.0222   -0.5553 H       1  UNL1        0.0479
     39 H          -0.6438    2.2471    1.1710 H       1  UNL1        0.0479
     40 H           1.0478    0.5984    1.7896 H       1  UNL1        0.0481
     41 H           1.7705    1.8109    0.7265 H       1  UNL1        0.0481
     42 H           3.8105   -2.1785   -2.9563 H       1  UNL1        0.0707
     43 H           3.6599   -0.4414   -3.1134 H       1  UNL1        0.0707
     44 H           5.6243   -0.1355   -1.4816 H       1  UNL1        0.0431
     45 H           4.8294   -2.0402    0.6846 H       1  UNL1        0.0621
     46 H           5.9602   -3.9932    1.7322 H       1  UNL1        0.0618
     47 H           7.7068   -5.2467    0.5018 H       1  UNL1        0.0618
     48 H           8.3870   -4.5529   -1.7821 H       1  UNL1        0.0624
     49 H           8.7472   -3.4447   -4.0655 H       1  UNL1        0.0624
     50 H           8.7283   -2.0547   -6.1219 H       1  UNL1        0.0618
     51 H           7.1793   -0.1342   -6.3308 H       1  UNL1        0.0618
     52 H           5.6229    0.4421   -4.4803 H       1  UNL1        0.0621
     53 H          -2.4062   -1.8267    1.4145 H       1  UNL1        0.0636
     54 H          -4.3917   -1.9286    2.8153 H       1  UNL1        0.0624
     55 H          -4.8233    2.3468    2.5191 H       1  UNL1        0.0624
     56 H          -2.8582    2.4419    1.0785 H       1  UNL1        0.0636
@<TRIPOS>BOND
     1     1     2    1
     2     2     3    1
     3     3     4    1
     4     4     5    1
     5     5     6    1
     6     1     6    1
     7     7     8    2
     8     7     9    1
     9     6     7   am
    10    11    12    1
    11    12    13   ar
    12    13    14   ar
    13    14    15   ar
    14    15    16   ar
    15    16    17   ar
    16    12    17   ar
    17    17    18    1
    18    18    19   ar
    19    19    20   ar
    20    20    21   ar
    21    21    22   ar
    22    22    23   ar
    23    11    23    1
    24    18    23   ar
    25    10    11    1
    26     9    10    1
    27    24    25   ar
    28    25    26   ar
    29    26    27   ar
    30    27    28   ar
    31    28    29   ar
    32    24    29   ar
    33    30    31    1
    34    30    32    1
    35    30    33    1
    36    27    30    1
    37     3    24    1
    38     1    34    1
    39     1    35    1
    40     2    36    1
    41     2    37    1
    42     4    38    1
    43     4    39    1
    44     5    40    1
    45     5    41    1
    46    10    42    1
    47    10    43    1
    48    11    44    1
    49    13    45    1
    50    14    46    1
    51    15    47    1
    52    16    48    1
    53    19    49    1
    54    20    50    1
    55    21    51    1
    56    22    52    1
    57    25    53    1
    58    26    54    1
    59    28    55    1
    60    29    56    1
@<TRIPOS>MOLECULE
mol_768_akc_tropicalmed8030141
(Z)-N-((benzylamine)((4-iodophenyl)amino)methylene)benzamide
 44 46 0 0 0
SMALL
GASTEIGER

@<TRIPOS>ATOM
      1 C           1.3310   -0.3663    0.0150 C.ar    1  UNL1        0.0561
      2 C           0.8248    0.9372   -0.0950 C.ar    1  UNL1       -0.0481
      3 C          -0.4747    1.1498   -0.5591 C.ar    1  UNL1       -0.0610
      4 C          -1.2754    0.0634   -0.9101 C.ar    1  UNL1       -0.0617
      5 C          -0.7725   -1.2352   -0.8194 C.ar    1  UNL1       -0.0610
      6 C           0.5307   -1.4513   -0.3650 C.ar    1  UNL1       -0.0481
      7 C           2.6822   -0.5746    0.6139 C.2     1  UNL1        0.3405
      8 O           3.1181    0.3026    1.3533 O.2     1  UNL1       -0.2484
      9 N           3.2574   -1.7995    0.3667 N.am    1  UNL1        0.0006
     10 C           4.5275   -1.9819    0.5375 C.2     1  UNL1        0.3844
     11 N           5.5463   -1.1033    0.7924 N.pl3   1  UNL1       -0.2450
     12 C           5.7870    0.1394    0.1841 C.ar    1  UNL1        0.0998
     13 C           6.4573    1.1346    0.9095 C.ar    1  UNL1       -0.0222
     14 C           6.6250    2.4197    0.3855 C.ar    1  UNL1       -0.0454
     15 C           6.1263    2.7189   -0.8798 C.ar    1  UNL1        0.0136
     16 C           5.4755    1.7397   -1.6270 C.ar    1  UNL1       -0.0454
     17 C           5.3040    0.4583   -1.0925 C.ar    1  UNL1       -0.0222
     18 I           6.3262    4.6418   -1.6403 I       1  UNL1       -0.0438
     19 N           5.0576   -3.2462    0.4854 N.pl3   1  UNL1       -0.2730
     20 C           4.4127   -4.3403   -0.2166 C.3     1  UNL1        0.0898
     21 C           5.4457   -5.0775   -1.0406 C.ar    1  UNL1       -0.0141
     22 C           5.7168   -6.4340   -0.8168 C.ar    1  UNL1       -0.0556
     23 C           6.6888   -7.0931   -1.5705 C.ar    1  UNL1       -0.0614
     24 C           7.4019   -6.4034   -2.5550 C.ar    1  UNL1       -0.0617
     25 C           7.1358   -5.0565   -2.7904 C.ar    1  UNL1       -0.0614
     26 C           6.1597   -4.3992   -2.0444 C.ar    1  UNL1       -0.0556
     27 H           1.4380    1.7874    0.1978 H       1  UNL1        0.0626
     28 H          -0.8672    2.1612   -0.6286 H       1  UNL1        0.0618
     29 H          -2.2960    0.2283   -1.2468 H       1  UNL1        0.0618
     30 H          -1.4023   -2.0807   -1.0838 H       1  UNL1        0.0618
     31 H           0.9031   -2.4687   -0.2744 H       1  UNL1        0.0626
     32 H           6.1509   -1.3344    1.5667 H       1  UNL1        0.2646
     33 H           6.8158    0.9295    1.9152 H       1  UNL1        0.0652
     34 H           7.1209    3.1762    0.9875 H       1  UNL1        0.0629
     35 H           5.0793    1.9596   -2.6146 H       1  UNL1        0.0629
     36 H           4.7790   -0.2895   -1.6815 H       1  UNL1        0.0652
     37 H           6.0682   -3.2817    0.4403 H       1  UNL1        0.2580
     38 H           3.9524   -5.0108    0.5168 H       1  UNL1        0.0706
     39 H           3.6183   -3.9978   -0.8910 H       1  UNL1        0.0706
     40 H           5.1772   -6.9862   -0.0510 H       1  UNL1        0.0621
     41 H           6.8961   -8.1446   -1.3920 H       1  UNL1        0.0618
     42 H           8.1615   -6.9170   -3.1359 H       1  UNL1        0.0618
     43 H           7.6915   -4.5180   -3.5540 H       1  UNL1        0.0618
     44 H           5.9618   -3.3456   -2.2369 H       1  UNL1        0.0621
@<TRIPOS>BOND
     1     1     2   ar
     2     2     3   ar
     3     3     4   ar
     4     4     5   ar
     5     5     6   ar
     6     1     6   ar
     7     7     8    2
     8     7     9    1
     9     1     7    1
    10    12    13   ar
    11    13    14   ar
    12    14    15   ar
    13    15    16   ar
    14    16    17   ar
    15    12    17   ar
    16    15    18    1
    17    11    12    1
    18    10    11    1
    19    20    21    1
    20    21    22   ar
    21    22    23   ar
    22    23    24   ar
    23    24    25   ar
    24    25    26   ar
    25    21    26   ar
    26    19    20    1
    27    10    19    1
    28     9    10    2
    29     2    27    1
    30     3    28    1
    31     4    29    1
    32     5    30    1
    33     6    31    1
    34    11    32    1
    35    13    33    1
    36    14    34    1
    37    16    35    1
    38    17    36    1
    39    19    37    1
    40    20    38    1
    41    20    39    1
    42    22    40    1
    43    23    41    1
    44    24    42    1
    45    25    43    1
    46    26    44    1
@<TRIPOS>MOLECULE
mol_769_akc_ap_2017_0070
2265
 26 28 0 0 0
SMALL
GASTEIGER

@<TRIPOS>ATOM
      1 S           1.0646    0.0387    0.1207 S.3     1  UNL1       -0.0414
      2 O           1.2694   -1.7863    2.7066 O.co2   1  UNL1       -0.5746
      3 O           0.7444   -3.9218    2.6851 O.2     1  UNL1        0.0432
      4 N           0.2659   -2.1135   -1.3484 N.ar    1  UNL1       -0.3225
      5 N           3.4981    0.5858    2.3236 N.ar    1  UNL1       -0.3410
      6 N           0.1699   -3.8552    0.0289 N.ar    1  UNL1       -0.1699
      7 N           3.3707   -0.5251   -1.1821 N.ar    1  UNL1       -0.2266
      8 N           5.6880    0.3586    2.0269 N.ar    1  UNL1       -0.2165
      9 N           0.8879   -2.8220    2.1355 N.pl3   1  UNL1        0.1034
     10 N           5.6029   -0.3656   -0.2727 N.ar    1  UNL1       -0.2145
     11 C           0.6483   -1.6322   -0.1175 C.ar    1  UNL1        0.1824
     12 C           3.6608    0.1719    1.0300 C.ar    1  UNL1        0.1177
     13 C           2.8178   -0.1190   -0.0190 C.ar    1  UNL1        0.1318
     14 C           0.5894   -2.7311    0.7214 C.ar    1  UNL1        0.3991
     15 C          -0.0103   -3.4475   -1.2068 C.ar    1  UNL1        0.1034
     16 C           5.0268    0.0355    0.8738 C.ar    1  UNL1        0.1817
     17 C           0.1650   -1.3884   -2.5935 C.3     1  UNL1        0.0139
     18 C           4.7430    0.6785    2.8837 C.ar    1  UNL1        0.0963
     19 C           4.7150   -0.6214   -1.2400 C.ar    1  UNL1        0.1197
     20 H          -0.3374   -4.0704   -2.0309 H       1  UNL1        0.1031
     21 H          -0.6022   -0.6178   -2.4861 H       1  UNL1        0.0456
     22 H           1.1350   -0.9446   -2.8271 H       1  UNL1        0.0456
     23 H          -0.1171   -2.0772   -3.3943 H       1  UNL1        0.0456
     24 H           2.6169    0.7593    2.7896 H       1  UNL1        0.1669
     25 H           4.8957    0.9779    3.9127 H       1  UNL1        0.1027
     26 H           5.1289   -0.9457   -2.1904 H       1  UNL1        0.1048
@<TRIPOS>UNITY_ATOM_ATTR
2 1
charge -1
9 1
charge 1
@<TRIPOS>BOND
     1     1    11    1
     2     1    13    1
     3     2     9    1
     4     3     9    2
     5     4    11   ar
     6     4    15   ar
     7     4    17    1
     8     5    12   ar
     9     5    18   ar
    10     5    24    1
    11     6    14   ar
    12     6    15   ar
    13     7    13   ar
    14     7    19   ar
    15     8    16   ar
    16     8    18   ar
    17     9    14    1
    18    10    16   ar
    19    10    19   ar
    20    11    14   ar
    21    12    13   ar
    22    12    16   ar
    23    15    20    1
    24    17    21    1
    25    17    22    1
    26    17    23    1
    27    18    25    1
    28    19    26    1
@<TRIPOS>MOLECULE
mol_76_akc_s00044_017_1824_y
>75.sdf
 40 43 0 0 0
SMALL
GASTEIGER

@<TRIPOS>ATOM
      1 C           2.4011    1.4367    1.1945 C.3     1  UNL1        0.0788
      2 O           2.4468    0.1215    0.6587 O.3     1  UNL1       -0.4951
      3 C           3.2271   -0.7900    1.3124 C.ar    1  UNL1        0.1201
      4 C           4.0232   -0.5509    2.4329 C.ar    1  UNL1       -0.0192
      5 C           4.7611   -1.5956    3.0134 C.ar    1  UNL1       -0.0460
      6 C           4.7147   -2.8914    2.4811 C.ar    1  UNL1        0.0372
      7 C           3.9252   -3.1108    1.3429 C.ar    1  UNL1       -0.0460
      8 C           3.1898   -2.0725    0.7676 C.ar    1  UNL1       -0.0192
      9 C           5.4635   -3.9856    3.0994 C.ar    1  UNL1        0.2284
     10 N           6.2187   -4.0016    4.1860 N.ar    1  UNL1       -0.2089
     11 C           6.6581   -5.3050    4.2603 C.ar    1  UNL1        0.1105
     12 C           6.1404   -6.0321    3.2048 C.ar    1  UNL1        0.1558
     13 O           5.3717   -5.1977    2.4579 O.2     1  UNL1       -0.4353
     14 C           6.3766   -7.3780    2.9640 C.ar    1  UNL1       -0.0165
     15 C           7.2411   -8.0047    3.8660 C.ar    1  UNL1       -0.0473
     16 C           7.8203   -7.3027    4.9398 C.ar    1  UNL1        0.0245
     17 C           7.5008   -5.9505    5.1775 C.ar    1  UNL1       -0.0218
     18 C           8.7651   -8.0513    5.8116 C.2     1  UNL1        0.1932
     19 O           8.5694   -9.2498    5.9988 O.2     1  UNL1       -0.2867
     20 C           9.9489   -7.4017    6.4369 C.ar    1  UNL1        0.0223
     21 C          10.5787   -6.2880    5.8670 C.ar    1  UNL1       -0.0509
     22 C          11.6804   -5.7066    6.4978 C.ar    1  UNL1       -0.0611
     23 C          12.1770   -6.2529    7.6801 C.ar    1  UNL1       -0.0617
     24 C          11.5807   -7.3864    8.2306 C.ar    1  UNL1       -0.0611
     25 C          10.4709   -7.9623    7.6099 C.ar    1  UNL1       -0.0509
     26 H           2.0399    1.4341    2.2280 H       1  UNL1        0.0660
     27 H           3.3781    1.9235    1.1159 H       1  UNL1        0.0660
     28 H           1.6895    2.0145    0.5964 H       1  UNL1        0.0660
     29 H           4.0907    0.4340    2.8835 H       1  UNL1        0.0654
     30 H           5.3721   -1.3896    3.8906 H       1  UNL1        0.0626
     31 H           3.8647   -4.0986    0.8902 H       1  UNL1        0.0626
     32 H           2.5783   -2.2697   -0.1092 H       1  UNL1        0.0654
     33 H           5.9309   -7.8983    2.1258 H       1  UNL1        0.0655
     34 H           7.4740   -9.0602    3.7227 H       1  UNL1        0.0626
     35 H           7.8914   -5.4012    6.0263 H       1  UNL1        0.0647
     36 H          10.2382   -5.8632    4.9268 H       1  UNL1        0.0625
     37 H          12.1562   -4.8317    6.0614 H       1  UNL1        0.0618
     38 H          13.0384   -5.8019    8.1667 H       1  UNL1        0.0618
     39 H          11.9810   -7.8251    9.1413 H       1  UNL1        0.0618
     40 H          10.0154   -8.8516    8.0421 H       1  UNL1        0.0625
@<TRIPOS>BOND
     1     1    26    1
     2     1    27    1
     3     1    28    1
     4     2     1    1
     5     3     2    1
     6     4     3   ar
     7     4    29    1
     8     5     4   ar
     9     5    30    1
    10     6     5   ar
    11     7     6   ar
    12     7    31    1
    13     8     7   ar
    14     8     3   ar
    15     8    32    1
    16     9     6    1
    17    10     9   ar
    18    11    10   ar
    19    12    11   ar
    20    13    12   ar
    21    13     9   ar
    22    14    12   ar
    23    14    33    1
    24    15    14   ar
    25    15    34    1
    26    16    15   ar
    27    17    16   ar
    28    17    11   ar
    29    17    35    1
    30    18    16    1
    31    19    18    2
    32    20    18    1
    33    21    20   ar
    34    21    36    1
    35    22    21   ar
    36    22    37    1
    37    23    22   ar
    38    23    38    1
    39    24    23   ar
    40    24    39    1
    41    25    24   ar
    42    25    20   ar
    43    25    40    1
@<TRIPOS>MOLECULE
mol_770_akc_jijantimicag201812011
*****
 55 58 0 0 0
SMALL
GASTEIGER

@<TRIPOS>ATOM
      1 C          -4.6889    1.2263    3.9937 C.ar    1  UNL1       -0.0616
      2 C          -4.6925    0.0280    3.2876 C.ar    1  UNL1       -0.0600
      3 C          -4.1539   -0.0302    1.9977 C.ar    1  UNL1       -0.0404
      4 C          -3.5985    1.1059    1.4014 C.ar    1  UNL1        0.0350
      5 C          -3.5957    2.3063    2.1236 C.ar    1  UNL1       -0.0404
      6 C          -4.1435    2.3673    3.4104 C.ar    1  UNL1       -0.0600
      7 N          -3.0522    1.1267    0.0945 N.am    1  UNL1       -0.2669
      8 C          -3.1181    0.1032   -0.8198 C.2     1  UNL1        0.3233
      9 O          -3.5964   -1.0131   -0.6651 O.2     1  UNL1       -0.2489
     10 N          -2.6967    0.4512   -2.1387 N.ar    1  UNL1       -0.2664
     11 C          -1.7665    1.3810   -2.6582 C.ar    1  UNL1        0.1126
     12 C          -1.7968    1.2409   -4.0499 C.ar    1  UNL1       -0.0312
     13 C          -2.7213    0.2483   -4.4052 C.ar    1  UNL1       -0.0429
     14 C          -3.2373   -0.2276   -3.2349 C.ar    1  UNL1        0.0147
     15 C          -0.9179    2.2941   -1.8934 C.2     1  UNL1        0.2652
     16 O          -1.1833    2.6146   -0.7402 O.2     1  UNL1       -0.2682
     17 N           0.1597    2.8085   -2.6032 N.am    1  UNL1       -0.2803
     18 C           1.1224    3.7426   -2.1647 C.ar    1  UNL1        0.0344
     19 C           1.3036    4.1149   -0.8331 C.ar    1  UNL1       -0.0283
     20 C           2.2878    5.0562   -0.4877 C.ar    1  UNL1        0.0388
     21 C           3.0952    5.6212   -1.4797 C.ar    1  UNL1       -0.0495
     22 C           2.9276    5.2454   -2.8090 C.ar    1  UNL1       -0.0593
     23 C           1.9542    4.3048   -3.1502 C.ar    1  UNL1       -0.0404
     24 C           2.5589    5.4122    0.9320 C.2     1  UNL1        0.2483
     25 O           3.6974    5.7479    1.2414 O.2     1  UNL1       -0.2699
     26 C           1.5214    5.5028    3.1832 C.ar    1  UNL1        0.0342
     27 C           2.6755    5.2190    3.9202 C.ar    1  UNL1       -0.0288
     28 C           0.3549    5.8747    3.8571 C.ar    1  UNL1       -0.0404
     29 C           0.3574    6.0176    5.2460 C.ar    1  UNL1       -0.0595
     30 C           1.5126    5.7377    5.9750 C.ar    1  UNL1       -0.0500
     31 C           2.6769    5.3090    5.3215 C.ar    1  UNL1        0.0566
     32 C           3.8955    4.9251    6.1227 C.3     1  UNL1        0.4175
     33 F           4.9143    4.4162    5.3761 F       1  UNL1       -0.1659
     34 F           4.4225    5.9745    6.8125 F       1  UNL1       -0.1659
     35 F           3.6147    3.9726    7.0576 F       1  UNL1       -0.1659
     36 N           1.4666    5.3809    1.7804 N.am    1  UNL1       -0.2815
     37 H          -5.1110    1.2686    4.9942 H       1  UNL1        0.0618
     38 H          -5.1152   -0.8686    3.7350 H       1  UNL1        0.0618
     39 H          -4.1808   -0.9901    1.4925 H       1  UNL1        0.0636
     40 H          -3.1866    3.2132    1.6882 H       1  UNL1        0.0636
     41 H          -4.1481    3.3069    3.9562 H       1  UNL1        0.0618
     42 H          -2.6137    2.0025   -0.1832 H       1  UNL1        0.1566
     43 H          -1.2165    1.8055   -4.7681 H       1  UNL1        0.0640
     44 H          -2.9882   -0.0865   -5.4002 H       1  UNL1        0.0633
     45 H          -3.9936   -0.9862   -3.0621 H       1  UNL1        0.0814
     46 H           0.2480    2.5276   -3.5674 H       1  UNL1        0.1552
     47 H           0.7339    3.6356   -0.0454 H       1  UNL1        0.0644
     48 H           3.8658    6.3433   -1.2151 H       1  UNL1        0.0625
     49 H           3.5613    5.6811   -3.5802 H       1  UNL1        0.0618
     50 H           1.8490    4.0277   -4.1949 H       1  UNL1        0.0636
     51 H           3.5808    4.8821    3.4178 H       1  UNL1        0.0642
     52 H          -0.5594    6.0893    3.3106 H       1  UNL1        0.0636
     53 H          -0.5434    6.3425    5.7609 H       1  UNL1        0.0618
     54 H           1.5013    5.8385    7.0594 H       1  UNL1        0.0623
     55 H           0.5462    5.3907    1.3591 H       1  UNL1        0.1551
@<TRIPOS>BOND
     1     1     2   ar
     2     2     3   ar
     3     3     4   ar
     4     4     5   ar
     5     5     6   ar
     6     1     6   ar
     7     4     7    1
     8     7     8   am
     9     8     9    2
    10     8    10   am
    11    10    11   ar
    12    10    14   ar
    13    11    12   ar
    14    12    13   ar
    15    13    14   ar
    16    11    15    1
    17    15    16    2
    18    15    17   am
    19    17    18    1
    20    18    19   ar
    21    18    23   ar
    22    19    20   ar
    23    20    21   ar
    24    21    22   ar
    25    22    23   ar
    26    20    24    1
    27    24    25    2
    28    27    26   ar
    29    26    28   ar
    30    28    29   ar
    31    29    30   ar
    32    30    31   ar
    33    27    31   ar
    34    32    33    1
    35    32    34    1
    36    32    35    1
    37    24    36   am
    38    36    26    1
    39    31    32    1
    40     1    37    1
    41     2    38    1
    42     3    39    1
    43     5    40    1
    44     6    41    1
    45     7    42    1
    46    12    43    1
    47    13    44    1
    48    14    45    1
    49    17    46    1
    50    19    47    1
    51    21    48    1
    52    22    49    1
    53    23    50    1
    54    27    51    1
    55    28    52    1
    56    29    53    1
    57    30    54    1
    58    36    55    1
@<TRIPOS>MOLECULE
mol_771_akc_aac01766_19
2-(2-aminobenzimidazol-1-yl)-N-benzyl-8-methoxy quinazolin-4-amine
 50 54 0 0 0
SMALL
GASTEIGER

@<TRIPOS>ATOM
      1 C           3.1160    1.4755   -0.0778 C.ar    1  UNL1       -0.0575
      2 C           3.2864    0.1604    0.3223 C.ar    1  UNL1       -0.0178
      3 C           2.1866   -0.6912    0.3651 C.ar    1  UNL1        0.1461
      4 C           0.9010   -0.2631    0.0048 C.ar    1  UNL1        0.1196
      5 N          -0.0988   -1.1456   -0.0047 N.ar    1  UNL1       -0.2079
      6 C          -1.3552   -0.6890   -0.0580 C.ar    1  UNL1        0.2401
      7 N          -1.6763    0.6058   -0.2520 N.ar    1  UNL1       -0.1963
      8 C          -0.6672    1.4806   -0.4129 C.ar    1  UNL1        0.1322
      9 C           0.6891    1.0965   -0.2859 C.ar    1  UNL1        0.0438
     10 C           1.8363    1.9296   -0.3937 C.ar    1  UNL1       -0.0490
     11 N          -1.1055    2.7882   -0.6694 N.pl3   1  UNL1       -0.3243
     12 O           2.4759   -1.9735    0.7862 O.3     1  UNL1       -0.4930
     13 C           1.6400   -2.4324    1.8520 C.3     1  UNL1        0.0789
     14 C          -0.5861    3.8486    0.1856 C.3     1  UNL1        0.0357
     15 C          -1.5255    5.0289    0.3081 C.ar    1  UNL1       -0.0304
     16 C          -2.5968    5.0002    1.2114 C.ar    1  UNL1       -0.0571
     17 C          -3.3665    6.1461    1.4310 C.ar    1  UNL1       -0.0615
     18 C          -3.0811    7.3268    0.7462 C.ar    1  UNL1       -0.0617
     19 C          -2.0413    7.3587   -0.1793 C.ar    1  UNL1       -0.0615
     20 C          -1.2733    6.2140   -0.4040 C.ar    1  UNL1       -0.0571
     21 C          -3.3206   -1.2675    1.3609 C.ar    1  UNL1        0.0779
     22 N          -2.3167   -1.6000    0.4623 N.ar    1  UNL1       -0.2488
     23 C          -2.1791   -2.9854    0.5178 C.ar    1  UNL1        0.2009
     24 N          -2.8250   -3.4920    1.5400 N.ar    1  UNL1       -0.2143
     25 C          -3.4715   -2.4301    2.1146 C.ar    1  UNL1        0.0914
     26 C          -4.1937   -2.3816    3.3152 C.ar    1  UNL1       -0.0342
     27 C          -4.7832   -1.1720    3.6982 C.ar    1  UNL1       -0.0596
     28 C          -4.6935   -0.0436    2.8821 C.ar    1  UNL1       -0.0597
     29 C          -3.9568   -0.0647    1.6946 C.ar    1  UNL1       -0.0356
     30 N          -1.4357   -3.6996   -0.3573 N.pl3   1  UNL1       -0.3285
     31 H           3.9668    2.1483   -0.1247 H       1  UNL1        0.0619
     32 H           4.2692   -0.2057    0.6034 H       1  UNL1        0.0655
     33 H           1.7482    2.9560   -0.7264 H       1  UNL1        0.0625
     34 H          -2.1241    2.7451   -0.6472 H       1  UNL1        0.1478
     35 H           1.0757   -1.6359    2.3516 H       1  UNL1        0.0660
     36 H           0.9579   -3.1995    1.4741 H       1  UNL1        0.0660
     37 H           2.2838   -2.8965    2.6063 H       1  UNL1        0.0660
     38 H          -0.3497    3.4880    1.1947 H       1  UNL1        0.0511
     39 H           0.3382    4.2415   -0.2444 H       1  UNL1        0.0511
     40 H          -2.8142    4.0970    1.7764 H       1  UNL1        0.0621
     41 H          -4.1785    6.1250    2.1534 H       1  UNL1        0.0618
     42 H          -3.6657    8.2233    0.9372 H       1  UNL1        0.0618
     43 H          -1.8163    8.2791   -0.7128 H       1  UNL1        0.0618
     44 H          -0.4527    6.2655   -1.1172 H       1  UNL1        0.0621
     45 H          -4.2581   -3.2632    3.9436 H       1  UNL1        0.0639
     46 H          -5.3160   -1.1134    4.6437 H       1  UNL1        0.0618
     47 H          -5.1771    0.8807    3.1898 H       1  UNL1        0.0618
     48 H          -3.8485    0.8282    1.0878 H       1  UNL1        0.0639
     49 H          -0.6173   -3.2498   -0.7664 H       1  UNL1        0.1451
     50 H          -1.2529   -4.6611   -0.0845 H       1  UNL1        0.1451
@<TRIPOS>BOND
     1     1     2   ar
     2     2     3   ar
     3     3     4   ar
     4     4     5   ar
     5     5     6   ar
     6     6     7   ar
     7     7     8   ar
     8     8     9   ar
     9     4     9   ar
    10     9    10   ar
    11     1    10   ar
    12     8    11    1
    13    12    13    1
    14     3    12    1
    15    14    15    1
    16    15    16   ar
    17    16    17   ar
    18    17    18   ar
    19    18    19   ar
    20    19    20   ar
    21    15    20   ar
    22    11    14    1
    23    21    22   ar
    24    22    23   ar
    25    23    24   ar
    26    24    25   ar
    27    21    25   ar
    28    25    26   ar
    29    26    27   ar
    30    27    28   ar
    31    28    29   ar
    32    21    29   ar
    33    23    30    1
    34     6    22    1
    35     1    31    1
    36     2    32    1
    37    10    33    1
    38    11    34    1
    39    13    35    1
    40    13    36    1
    41    13    37    1
    42    14    38    1
    43    14    39    1
    44    16    40    1
    45    17    41    1
    46    18    42    1
    47    19    43    1
    48    20    44    1
    49    26    45    1
    50    27    46    1
    51    28    47    1
    52    29    48    1
    53    30    49    1
    54    30    50    1
@<TRIPOS>MOLECULE
mol_772_akc_0103_505320230073
*****
 50 52 0 0 0
SMALL
GASTEIGER

@<TRIPOS>ATOM
      1 C           1.9743    2.1304    2.3085 C.ar    1  UNL1       -0.0163
      2 C           1.6512    2.9467    3.3841 C.ar    1  UNL1       -0.0578
      3 C           0.5086    3.7342    3.3254 C.ar    1  UNL1       -0.0546
      4 C          -0.3545    3.7343    2.1990 C.ar    1  UNL1        0.0017
      5 C          -0.0530    2.8684    1.1212 C.ar    1  UNL1        0.1659
      6 C           1.1372    2.0827    1.1877 C.ar    1  UNL1        0.1618
      7 O           1.3919    1.2878    0.0909 O.3     1  UNL1       -0.4914
      8 O          -0.7500    2.6460   -0.0470 O.3     1  UNL1       -0.4818
      9 C          -1.5223    4.6922    2.3206 C.3     1  UNL1       -0.0062
     10 C          -2.7836    4.1519    2.9433 C.2     1  UNL1       -0.0867
     11 C          -3.0280    2.8865    3.3242 C.2     1  UNL1       -0.1023
     12 C          -2.0456    3.1870   -0.2500 C.3     1  UNL1        0.1348
     13 C          -2.7283    2.6992   -1.4871 C.ar    1  UNL1        0.1199
     14 C           2.5584    0.4788    0.1082 C.3     1  UNL1        0.0790
     15 N          -3.4278    2.8563   -3.5558 N.ar    1  UNL1       -0.0650
     16 N          -2.5427    3.3338   -2.6916 N.ar    1  UNL1       -0.1310
     17 C          -3.7308    1.7586   -1.6311 C.ar    1  UNL1        0.0524
     18 N          -4.1978    1.9699   -2.8972 N.ar    1  UNL1       -0.2470
     19 C          -5.3748    1.3990   -3.5321 C.3     1  UNL1        0.0682
     20 C          -6.6369    2.1961   -3.2618 C.ar    1  UNL1       -0.0258
     21 C          -9.0332    3.6542   -2.8695 C.ar    1  UNL1        0.1201
     22 C          -7.9220    4.2650   -3.4487 C.ar    1  UNL1       -0.0196
     23 C          -6.7396    3.5416   -3.6451 C.ar    1  UNL1       -0.0534
     24 C          -7.7579    1.5888   -2.6821 C.ar    1  UNL1       -0.0534
     25 C          -8.9438    2.3132   -2.4883 C.ar    1  UNL1       -0.0196
     26 O         -10.2423    4.2452   -2.6316 O.3     1  UNL1       -0.4951
     27 C         -10.3743    5.6106   -3.0148 C.3     1  UNL1        0.0788
     28 H           2.8812    1.5411    2.3788 H       1  UNL1        0.0655
     29 H           2.2895    2.9757    4.2641 H       1  UNL1        0.0619
     30 H           0.2835    4.3696    4.1810 H       1  UNL1        0.0622
     31 H          -1.2066    5.5416    2.9448 H       1  UNL1        0.0357
     32 H          -1.7420    5.1722    1.3676 H       1  UNL1        0.0357
     33 H          -3.5723    4.8859    3.0960 H       1  UNL1        0.0570
     34 H          -3.9827    2.6107    3.7613 H       1  UNL1        0.0532
     35 H          -2.2949    2.0935    3.2009 H       1  UNL1        0.0532
     36 H          -2.6930    2.9302    0.5891 H       1  UNL1        0.0764
     37 H          -1.9632    4.2700   -0.3637 H       1  UNL1        0.0764
     38 H           3.4661    1.0907    0.1394 H       1  UNL1        0.0660
     39 H           2.5327   -0.2357    0.9374 H       1  UNL1        0.0660
     40 H           2.5776   -0.0966   -0.8222 H       1  UNL1        0.0660
     41 H          -4.1957    1.0705   -0.9417 H       1  UNL1        0.0846
     42 H          -5.1915    1.3494   -4.6115 H       1  UNL1        0.0559
     43 H          -5.4699    0.3717   -3.1630 H       1  UNL1        0.0559
     44 H          -7.9421    5.3026   -3.7663 H       1  UNL1        0.0654
     45 H          -5.8927    4.0472   -4.1120 H       1  UNL1        0.0622
     46 H          -7.7367    0.5423   -2.3844 H       1  UNL1        0.0622
     47 H          -9.8073    1.8257   -2.0431 H       1  UNL1        0.0654
     48 H          -9.6631    6.2431   -2.4731 H       1  UNL1        0.0660
     49 H         -10.2628    5.7283   -4.0980 H       1  UNL1        0.0660
     50 H         -11.3824    5.9416   -2.7466 H       1  UNL1        0.0660
@<TRIPOS>BOND
     1     1     2   ar
     2     2     3   ar
     3     3     4   ar
     4     4     5   ar
     5     5     6   ar
     6     1     6   ar
     7     6     7    1
     8     5     8    1
     9     4     9    1
    10     9    10    1
    11    10    11    2
    12     8    12    1
    13    12    13    1
    14     7    14    1
    15    16    13   ar
    16    13    17   ar
    17    15    16   ar
    18    17    18   ar
    19    15    18   ar
    20    18    19    1
    21    19    20    1
    22    23    20   ar
    23    20    24   ar
    24    21    22   ar
    25    22    23   ar
    26    24    25   ar
    27    21    25   ar
    28    21    26    1
    29    26    27    1
    30     1    28    1
    31     2    29    1
    32     3    30    1
    33     9    31    1
    34     9    32    1
    35    10    33    1
    36    11    34    1
    37    11    35    1
    38    12    36    1
    39    12    37    1
    40    14    38    1
    41    14    39    1
    42    14    40    1
    43    17    41    1
    44    19    42    1
    45    19    43    1
    46    22    44    1
    47    23    45    1
    48    24    46    1
    49    25    47    1
    50    27    48    1
    51    27    49    1
    52    27    50    1
@<TRIPOS>MOLECULE
mol_773_akc_jbioorg2023106615
11-(butyl(2,6-dinitro-4-(trifluoromethyl)phenyl)amino)undecyl (2-(trimethylammonio) ethyl) phosphate
 89 89 0 0 0
SMALL
GASTEIGER

@<TRIPOS>ATOM
      1 O          -8.3000    7.8815    2.1741 O.3     1  UNL1       -0.3221
      2 P          -7.6074    6.8621    3.2342 P.3     1  UNL1        0.2127
      3 O          -7.7045    5.5037    2.3743 O.3     1  UNL1       -0.3274
      4 O          -6.1758    7.3078    3.3616 O.2     1  UNL1       -0.5172
      5 O          -8.5034    6.7630    4.4397 O.co2   1  UNL1       -0.4373
      6 C          -9.5080    8.5006    2.5562 C.3     1  UNL1        0.0947
      7 C          -9.3721    9.4381    3.7699 C.3     1  UNL1       -0.0064
      8 N          -8.4020   10.6470    3.5946 N.4     1  UNL1        0.2385
      9 C          -8.7921   11.5147    2.4263 C.3     1  UNL1       -0.0417
     10 C          -8.4526   11.4463    4.8873 C.3     1  UNL1       -0.0417
     11 C          -6.9570   10.1624    3.4159 C.3     1  UNL1       -0.0417
     12 C          -6.8938    4.4329    2.8182 C.3     1  UNL1        0.0549
     13 C          -7.2010    3.1974    1.9794 C.3     1  UNL1       -0.0290
     14 C          -7.1122    3.4449    0.4684 C.3     1  UNL1       -0.0510
     15 C          -5.7397    3.9166   -0.0226 C.3     1  UNL1       -0.0530
     16 C          -4.5917    2.9373    0.2411 C.3     1  UNL1       -0.0531
     17 C          -4.7948    1.5388   -0.3454 C.3     1  UNL1       -0.0531
     18 C          -4.8962    1.5437   -1.8723 C.3     1  UNL1       -0.0531
     19 C          -5.3240    0.1986   -2.4541 C.3     1  UNL1       -0.0530
     20 C          -4.3691   -0.9432   -2.1229 C.3     1  UNL1       -0.0516
     21 C          -4.9078   -2.2801   -2.6273 C.3     1  UNL1       -0.0372
     22 C          -4.8394   -2.4242   -4.1552 C.3     1  UNL1        0.0126
     23 N          -4.9947   -3.8461   -4.5687 N.pl3   1  UNL1       -0.3194
     24 C          -3.8770   -4.5202   -5.1106 C.ar    1  UNL1        0.1858
     25 C          -3.8874   -5.3237   -6.2885 C.ar    1  UNL1        0.3011
     26 C          -2.8038   -6.1390   -6.7203 C.ar    1  UNL1        0.0296
     27 C          -1.6067   -6.1743   -6.0153 C.ar    1  UNL1        0.0677
     28 C          -1.5037   -5.3501   -4.9051 C.ar    1  UNL1        0.0296
     29 C          -2.6000   -4.5613   -4.4766 C.ar    1  UNL1        0.3011
     30 C          -0.4492   -7.0535   -6.4138 C.3     1  UNL1        0.4178
     31 F          -0.7077   -7.8272   -7.4996 F       1  UNL1       -0.1659
     32 F           0.6628   -6.3315   -6.7133 F       1  UNL1       -0.1659
     33 F          -0.0904   -7.9047   -5.4155 F       1  UNL1       -0.1659
     34 N          -4.9876   -5.3139   -7.2418 N.pl3   1  UNL1        0.0818
     35 O          -5.2269   -4.2439   -7.8224 O.2     1  UNL1        0.0415
     36 O          -5.5591   -6.3945   -7.4480 O.co2   1  UNL1       -0.5760
     37 N          -2.2735   -3.8253   -3.2741 N.pl3   1  UNL1        0.0818
     38 O          -1.8014   -2.6946   -3.4231 O.2     1  UNL1        0.0415
     39 O          -2.3447   -4.4465   -2.2040 O.co2   1  UNL1       -0.5760
     40 C          -6.3855   -4.2053   -4.9595 C.3     1  UNL1        0.0126
     41 C          -7.3618   -4.2261   -3.7815 C.3     1  UNL1       -0.0375
     42 C          -8.7435   -4.7631   -4.1759 C.3     1  UNL1       -0.0545
     43 C          -9.4935   -3.8448   -5.1315 C.3     1  UNL1       -0.0652
     44 H          -9.8852    9.0521    1.6894 H       1  UNL1        0.0618
     45 H         -10.2536    7.7255    2.7677 H       1  UNL1        0.0618
     46 H         -10.3567    9.8763    3.9760 H       1  UNL1        0.0838
     47 H          -9.0440    8.9317    4.6775 H       1  UNL1        0.0838
     48 H          -9.8354   11.8190    2.5523 H       1  UNL1        0.0778
     49 H          -8.1431   12.3963    2.4172 H       1  UNL1        0.0778
     50 H          -8.6632   10.9531    1.4978 H       1  UNL1        0.0778
     51 H          -8.1562   10.7952    5.7158 H       1  UNL1        0.0778
     52 H          -7.7622   12.2910    4.8048 H       1  UNL1        0.0778
     53 H          -9.4751   11.8075    5.0321 H       1  UNL1        0.0778
     54 H          -6.7175    9.4972    4.2463 H       1  UNL1        0.0778
     55 H          -6.8500    9.7001    2.4345 H       1  UNL1        0.0778
     56 H          -6.3047   11.0413    3.4540 H       1  UNL1        0.0778
     57 H          -5.8393    4.7110    2.7225 H       1  UNL1        0.0564
     58 H          -7.0959    4.2267    3.8747 H       1  UNL1        0.0564
     59 H          -6.5394    2.3765    2.2772 H       1  UNL1        0.0287
     60 H          -8.2251    2.8716    2.2001 H       1  UNL1        0.0287
     61 H          -7.4049    2.5289   -0.0577 H       1  UNL1        0.0266
     62 H          -7.8580    4.1960    0.1798 H       1  UNL1        0.0266
     63 H          -5.8073    4.1248   -1.0963 H       1  UNL1        0.0265
     64 H          -5.4905    4.8791    0.4386 H       1  UNL1        0.0265
     65 H          -3.6665    3.3635   -0.1657 H       1  UNL1        0.0265
     66 H          -4.4317    2.8437    1.3218 H       1  UNL1        0.0265
     67 H          -3.9396    0.9246   -0.0386 H       1  UNL1        0.0265
     68 H          -5.6820    1.0685    0.0929 H       1  UNL1        0.0265
     69 H          -5.6383    2.2775   -2.2028 H       1  UNL1        0.0265
     70 H          -3.9350    1.8482   -2.3029 H       1  UNL1        0.0265
     71 H          -6.3288   -0.0451   -2.0878 H       1  UNL1        0.0265
     72 H          -5.4023    0.3068   -3.5421 H       1  UNL1        0.0265
     73 H          -3.3771   -0.7360   -2.5402 H       1  UNL1        0.0266
     74 H          -4.2437   -1.0294   -1.0381 H       1  UNL1        0.0266
     75 H          -4.3667   -3.0838   -2.1282 H       1  UNL1        0.0280
     76 H          -5.9354   -2.3948   -2.2730 H       1  UNL1        0.0280
     77 H          -5.6459   -1.8236   -4.5966 H       1  UNL1        0.0464
     78 H          -3.9213   -1.9920   -4.5680 H       1  UNL1        0.0464
     79 H          -2.9094   -6.7448   -7.6235 H       1  UNL1        0.0691
     80 H          -0.5703   -5.3319   -4.3364 H       1  UNL1        0.0691
     81 H          -6.7382   -3.5097   -5.7305 H       1  UNL1        0.0464
     82 H          -6.4263   -5.2183   -5.3590 H       1  UNL1        0.0464
     83 H          -6.9502   -4.8639   -2.9898 H       1  UNL1        0.0280
     84 H          -7.4919   -3.2257   -3.3608 H       1  UNL1        0.0280
     85 H          -8.6513   -5.7579   -4.6249 H       1  UNL1        0.0263
     86 H          -9.3413   -4.8794   -3.2640 H       1  UNL1        0.0263
     87 H          -9.0566   -3.8738   -6.1352 H       1  UNL1        0.0230
     88 H         -10.5380   -4.1610   -5.2155 H       1  UNL1        0.0230
     89 H          -9.4806   -2.8092   -4.7788 H       1  UNL1        0.0230
@<TRIPOS>UNITY_ATOM_ATTR
5 1
charge -1
8 1
charge 1
34 1
charge 1
36 1
charge -1
37 1
charge 1
39 1
charge -1
@<TRIPOS>BOND
     1     1     2    1
     2     2     3    1
     3     2     4    2
     4     2     5    1
     5     6     7    1
     6     8     9    1
     7     8    10    1
     8     8    11    1
     9     7     8    1
    10     1     6    1
    11    12    13    1
    12    13    14    1
    13    14    15    1
    14    15    16    1
    15    16    17    1
    16    17    18    1
    17    18    19    1
    18    19    20    1
    19    20    21    1
    20    21    22    1
    21    24    25   ar
    22    25    26   ar
    23    26    27   ar
    24    27    28   ar
    25    28    29   ar
    26    24    29   ar
    27    30    31    1
    28    30    32    1
    29    30    33    1
    30    27    30    1
    31    34    35    2
    32    34    36    1
    33    25    34    1
    34    37    38    2
    35    37    39    1
    36    29    37    1
    37    23    24    1
    38    40    41    1
    39    41    42    1
    40    42    43    1
    41    23    40    1
    42    22    23    1
    43     3    12    1
    44     6    44    1
    45     6    45    1
    46     7    46    1
    47     7    47    1
    48     9    48    1
    49     9    49    1
    50     9    50    1
    51    10    51    1
    52    10    52    1
    53    10    53    1
    54    11    54    1
    55    11    55    1
    56    11    56    1
    57    12    57    1
    58    12    58    1
    59    13    59    1
    60    13    60    1
    61    14    61    1
    62    14    62    1
    63    15    63    1
    64    15    64    1
    65    16    65    1
    66    16    66    1
    67    17    67    1
    68    17    68    1
    69    18    69    1
    70    18    70    1
    71    19    71    1
    72    19    72    1
    73    20    73    1
    74    20    74    1
    75    21    75    1
    76    21    76    1
    77    22    77    1
    78    22    78    1
    79    26    79    1
    80    28    80    1
    81    40    81    1
    82    40    82    1
    83    41    83    1
    84    41    84    1
    85    42    85    1
    86    42    86    1
    87    43    87    1
    88    43    88    1
    89    43    89    1
@<TRIPOS>MOLECULE
mol_774_akc_0739110220232212779
(E)-2, 3-diacetoxy-1-(4-hydroxy-3-methoxyphenyl)-7-(3,4-dihydroxy-5-methoxyphenyl)-5-heptene
 64 65 0 0 0
SMALL
GASTEIGER

@<TRIPOS>ATOM
      1 C          -0.2616    2.2082    0.3241 C.3     1  UNL1        0.0133
      2 C           0.4181    1.2172   -0.6587 C.3     1  UNL1        0.1439
      3 C           1.4743    0.2703    0.0079 C.3     1  UNL1        0.1434
      4 C           2.8253    0.9361    0.3505 C.3     1  UNL1        0.0061
      5 C           2.8325    1.8089    1.5732 C.2     1  UNL1       -0.0840
      6 C           2.7969    3.1480    1.5142 C.2     1  UNL1       -0.0835
      7 C           2.8999    4.0603    2.6992 C.3     1  UNL1       -0.0092
      8 C           4.2919    4.6336    2.7731 C.ar    1  UNL1       -0.0365
      9 C           5.2841    3.9335    3.4792 C.ar    1  UNL1       -0.0128
     10 C           6.5954    4.3892    3.4711 C.ar    1  UNL1        0.1622
     11 C           6.9272    5.5332    2.7503 C.ar    1  UNL1        0.2008
     12 C           5.9541    6.2429    2.0316 C.ar    1  UNL1        0.1652
     13 C           4.6349    5.7914    2.0497 C.ar    1  UNL1       -0.0126
     14 O           6.4260    7.3382    1.3521 O.3     1  UNL1       -0.4913
     15 C           5.4814    8.0796    0.5900 C.3     1  UNL1        0.0790
     16 O           7.5644    3.7126    4.1560 O.3     1  UNL1       -0.5032
     17 O           8.2272    5.9704    2.7304 O.3     1  UNL1       -0.5009
     18 C          -1.4639    3.0225   -0.1468 C.ar    1  UNL1       -0.0401
     19 C          -1.9638    2.9818   -1.4559 C.ar    1  UNL1       -0.0130
     20 C          -2.9437    3.8851   -1.8772 C.ar    1  UNL1        0.1615
     21 C          -3.4801    4.7829   -0.9461 C.ar    1  UNL1        0.1585
     22 C          -3.0566    4.7997    0.3715 C.ar    1  UNL1       -0.0163
     23 C          -2.0390    3.9335    0.7658 C.ar    1  UNL1       -0.0548
     24 O          -3.4361    4.0166   -3.1487 O.3     1  UNL1       -0.4915
     25 C          -2.8890    3.1645   -4.1481 C.3     1  UNL1        0.0790
     26 O          -4.4249    5.6937   -1.3333 O.3     1  UNL1       -0.5033
     27 O           1.0038    1.9846   -1.7523 O.3     1  UNL1       -0.4575
     28 C           1.3091    1.2966   -2.8885 C.2     1  UNL1        0.3043
     29 C           1.7143    2.2135   -4.0040 C.3     1  UNL1        0.0332
     30 O           1.2024    0.0864   -3.0199 O.2     1  UNL1       -0.2512
     31 O           0.9019   -0.3992    1.1573 O.3     1  UNL1       -0.4575
     32 C           1.5245   -1.5521    1.5510 C.2     1  UNL1        0.3043
     33 C           0.8482   -2.1322    2.7566 C.3     1  UNL1        0.0332
     34 O           2.5178   -2.0323    1.0336 O.2     1  UNL1       -0.2512
     35 H           0.4674    2.9721    0.5964 H       1  UNL1        0.0350
     36 H          -0.5602    1.6760    1.2339 H       1  UNL1        0.0350
     37 H          -0.3795    0.5808   -1.0660 H       1  UNL1        0.0775
     38 H           1.6985   -0.5041   -0.7352 H       1  UNL1        0.0775
     39 H           3.5771    0.1570    0.5300 H       1  UNL1        0.0344
     40 H           3.2024    1.4896   -0.5175 H       1  UNL1        0.0344
     41 H           2.9582    1.3059    2.5306 H       1  UNL1        0.0570
     42 H           2.6977    3.6381    0.5469 H       1  UNL1        0.0572
     43 H           2.1559    4.8619    2.6154 H       1  UNL1        0.0356
     44 H           2.6622    3.5307    3.6311 H       1  UNL1        0.0356
     45 H           5.0205    3.0185    4.0028 H       1  UNL1        0.0658
     46 H           3.8554    6.3005    1.4892 H       1  UNL1        0.0658
     47 H           5.0268    7.4613   -0.1911 H       1  UNL1        0.0660
     48 H           4.7195    8.5267    1.2365 H       1  UNL1        0.0660
     49 H           6.0200    8.8941    0.0957 H       1  UNL1        0.0660
     50 H           7.1564    2.9752    4.6343 H       1  UNL1        0.2923
     51 H           8.2191    6.7601    2.1598 H       1  UNL1        0.2924
     52 H          -1.5572    2.2610   -2.1548 H       1  UNL1        0.0658
     53 H          -3.4876    5.5044    1.0757 H       1  UNL1        0.0655
     54 H          -1.6814    3.9768    1.7953 H       1  UNL1        0.0621
     55 H          -1.7959    3.1163   -4.1123 H       1  UNL1        0.0660
     56 H          -3.3317    2.1669   -4.0715 H       1  UNL1        0.0660
     57 H          -3.1548    3.5840   -5.1232 H       1  UNL1        0.0660
     58 H          -4.5365    5.5469   -2.2929 H       1  UNL1        0.2923
     59 H           2.5546    1.7707   -4.5476 H       1  UNL1        0.0342
     60 H           0.8667    2.3460   -4.6817 H       1  UNL1        0.0342
     61 H           2.0339    3.1884   -3.6275 H       1  UNL1        0.0342
     62 H           1.2061   -3.1533    2.9083 H       1  UNL1        0.0342
     63 H           1.0850   -1.5378    3.6430 H       1  UNL1        0.0342
     64 H          -0.2333   -2.1766    2.6012 H       1  UNL1        0.0342
@<TRIPOS>BOND
     1     3     4    1
     2     4     5    1
     3     5     6    2
     4     6     7    1
     5     8     9   ar
     6     9    10   ar
     7    10    11   ar
     8    11    12   ar
     9    12    13   ar
    10     8    13   ar
    11    14    15    1
    12    12    14    1
    13    10    16    1
    14    11    17    1
    15     7     8    1
    16    18    19   ar
    17    19    20   ar
    18    20    21   ar
    19    21    22   ar
    20    22    23   ar
    21    18    23   ar
    22    24    25    1
    23    20    24    1
    24    21    26    1
    25     1    18    1
    26    28    29    1
    27    28    30    2
    28    27    28    1
    29     2    27    1
    30    32    33    1
    31    32    34    2
    32    31    32    1
    33     3    31    1
    34     1    35    1
    35     1    36    1
    36     2    37    1
    37     3    38    1
    38     4    39    1
    39     4    40    1
    40     5    41    1
    41     6    42    1
    42     7    43    1
    43     7    44    1
    44     9    45    1
    45    13    46    1
    46    15    47    1
    47    15    48    1
    48    15    49    1
    49    16    50    1
    50    17    51    1
    51    19    52    1
    52    22    53    1
    53    23    54    1
    54    25    55    1
    55    25    56    1
    56    25    57    1
    57    26    58    1
    58    29    59    1
    59    29    60    1
    60    29    61    1
    61    33    62    1
    62    33    63    1
    63    33    64    1
    64     2     3    1
    65     2     1    1
@<TRIPOS>MOLECULE
mol_775_akc_acsjmedchem3c00056
*****
 43 45 0 0 0
SMALL
GASTEIGER

@<TRIPOS>ATOM
      1 C          -1.0069    1.1528   -0.5904 C.3     1  UNL1        0.0525
      2 C          -0.5867    0.8843   -2.0529 C.3     1  UNL1       -0.0175
      3 N           0.4704   -0.1989   -2.0938 N.4     1  UNL1        0.2292
      4 C           0.0379   -1.4664   -1.3939 C.3     1  UNL1       -0.0175
      5 C          -0.4255   -1.1747    0.0511 C.3     1  UNL1        0.0525
      6 N          -1.4494   -0.1137    0.0364 N.pl3   1  UNL1       -0.3180
      7 C          -2.5877   -0.1814    0.8316 C.ar    1  UNL1        0.0606
      8 C          -2.5738   -0.9059    2.0392 C.ar    1  UNL1       -0.0377
      9 C          -3.6982   -1.0052    2.8813 C.ar    1  UNL1       -0.0477
     10 C          -4.8838   -0.3391    2.5667 C.ar    1  UNL1        0.0393
     11 C          -4.9500    0.3708    1.3657 C.ar    1  UNL1       -0.0175
     12 C          -3.8326    0.4110    0.5145 C.ar    1  UNL1        0.1478
     13 N          -4.0674    0.9803   -0.7985 N.pl3   1  UNL1        0.0583
     14 O          -3.8681    0.2496   -1.7821 O.2     1  UNL1       -0.1261
     15 O          -4.3776    2.1762   -0.8502 O.2     1  UNL1       -0.1261
     16 C          -6.1140   -0.3893    3.4135 C.2     1  UNL1        0.2483
     17 O          -7.1749   -0.1168    2.8681 O.2     1  UNL1       -0.2699
     18 N          -5.9346   -0.7084    4.7507 N.am    1  UNL1       -0.2815
     19 C          -6.9333   -0.7403    5.7517 C.ar    1  UNL1        0.0351
     20 C          -9.2029   -0.4536    6.5690 C.ar    1  UNL1       -0.0402
     21 C          -8.2854   -0.4856    5.5135 C.ar    1  UNL1       -0.0390
     22 C          -6.5225   -1.0156    7.0627 C.ar    1  UNL1       -0.0207
     23 C          -7.4402   -0.9909    8.1220 C.ar    1  UNL1        0.0610
     24 C          -8.7822   -0.6924    7.8770 C.ar    1  UNL1        0.0594
     25 CL         -9.9583   -0.5868    9.1360 Cl      1  UNL1       -0.0820
     26 CL         -6.8405   -1.3274    9.7078 Cl      1  UNL1       -0.0820
     27 H          -0.1442    1.5368   -0.0304 H       1  UNL1        0.0516
     28 H          -1.7560    1.9467   -0.5595 H       1  UNL1        0.0516
     29 H          -1.4193    0.5251   -2.6632 H       1  UNL1        0.0829
     30 H          -0.1476    1.7721   -2.5172 H       1  UNL1        0.0829
     31 H           0.6836   -0.4151   -3.0763 H       1  UNL1        0.2015
     32 H           1.3387    0.1532   -1.6724 H       1  UNL1        0.2015
     33 H           0.8942   -2.1461   -1.4088 H       1  UNL1        0.0829
     34 H          -0.7780   -1.8880   -1.9903 H       1  UNL1        0.0829
     35 H           0.4255   -0.8497    0.6630 H       1  UNL1        0.0516
     36 H          -0.8026   -2.1148    0.4685 H       1  UNL1        0.0516
     37 H          -1.6732   -1.4179    2.3728 H       1  UNL1        0.0637
     38 H          -3.6172   -1.6339    3.7642 H       1  UNL1        0.0626
     39 H          -5.8793    0.8629    1.0745 H       1  UNL1        0.0648
     40 H          -4.9934   -0.8444    5.0859 H       1  UNL1        0.1551
     41 H         -10.2462   -0.2276    6.3568 H       1  UNL1        0.0633
     42 H          -8.6671   -0.2896    4.5161 H       1  UNL1        0.0636
     43 H          -5.4809   -1.2421    7.2795 H       1  UNL1        0.0651
@<TRIPOS>UNITY_ATOM_ATTR
3 1
charge 1
@<TRIPOS>BOND
     1     1     2    1
     2     2     3    1
     3     3     4    1
     4     4     5    1
     5     5     6    1
     6     1     6    1
     7     8     9   ar
     8     9    10   ar
     9    10    11   ar
    10    11    12   ar
    11     7     8   ar
    12     7    12   ar
    13     6     7    1
    14    12    13    1
    15    13    14    2
    16    13    15    2
    17    10    16    1
    18    16    17    2
    19    16    18   am
    20    18    19    1
    21    20    21   ar
    22    22    23   ar
    23    23    24   ar
    24    20    24   ar
    25    21    19   ar
    26    19    22   ar
    27    24    25    1
    28    23    26    1
    29     1    27    1
    30     1    28    1
    31     2    29    1
    32     2    30    1
    33     3    31    1
    34     3    32    1
    35     4    33    1
    36     4    34    1
    37     5    35    1
    38     5    36    1
    39     8    37    1
    40     9    38    1
    41    11    39    1
    42    18    40    1
    43    20    41    1
    44    21    42    1
    45    22    43    1
@<TRIPOS>MOLECULE
mol_776_akc_jexppara2023108555
*****
 59 60 0 0 0
SMALL
GASTEIGER

@<TRIPOS>ATOM
      1 C          -7.9218    2.6882    4.0779 C.ar    1  UNL1        0.0179
      2 C          -6.5467    2.6366    3.8387 C.ar    1  UNL1       -0.0061
      3 C          -5.9744    1.5315    3.1943 C.ar    1  UNL1        0.1622
      4 C          -6.8008    0.4844    2.7531 C.ar    1  UNL1        0.1621
      5 C          -8.1745    0.5295    3.0510 C.ar    1  UNL1       -0.0156
      6 C          -8.7398    1.6242    3.7078 C.ar    1  UNL1       -0.0479
      7 C          -8.5108    3.9020    4.6852 C.2     1  UNL1        0.1503
      8 O          -7.8343    4.8706    4.9987 O.2     1  UNL1       -0.2957
      9 O          -4.6384    1.5090    2.8900 O.3     1  UNL1       -0.4914
     10 C          -3.7669    2.1125    3.8453 C.3     1  UNL1        0.0790
     11 O          -6.4651   -0.6294    2.0312 O.3     1  UNL1       -0.4857
     12 C          -5.1598   -0.7949    1.4683 C.3     1  UNL1        0.1173
     13 C          -5.0149   -0.0906    0.1027 C.3     1  UNL1        0.1086
     14 C          -3.6904   -0.4076   -0.5946 C.3     1  UNL1        0.0723
     15 N          -2.5267    0.1663    0.0459 N.ar    1  UNL1       -0.2489
     16 N          -1.8430   -0.5284    0.9699 N.ar    1  UNL1       -0.0654
     17 N          -0.7435    0.1590    1.2519 N.ar    1  UNL1       -0.1345
     18 C          -0.7377    1.2954    0.4843 C.ar    1  UNL1        0.0828
     19 C          -1.8943    1.3348   -0.2623 C.ar    1  UNL1        0.0487
     20 C           0.4105    2.2405    0.5084 C.3     1  UNL1       -0.0071
     21 C           1.7326    1.6114    0.0485 C.3     1  UNL1       -0.0475
     22 C           1.7091    1.1495   -1.4140 C.3     1  UNL1       -0.0527
     23 C           3.0447    0.5240   -1.8279 C.3     1  UNL1       -0.0530
     24 C           3.0110    0.0502   -3.2836 C.3     1  UNL1       -0.0531
     25 C           4.3396   -0.5855   -3.6990 C.3     1  UNL1       -0.0533
     26 C           4.3015   -1.0634   -5.1513 C.3     1  UNL1       -0.0559
     27 C           5.6228   -1.6912   -5.5675 C.3     1  UNL1       -0.0653
     28 O          -5.1900    1.3292    0.1504 O.3     1  UNL1       -0.3866
     29 H          -5.9437    3.4931    4.1240 H       1  UNL1        0.0662
     30 H          -8.8160   -0.2933    2.7378 H       1  UNL1        0.0655
     31 H          -9.8112    1.6420    3.8950 H       1  UNL1        0.0626
     32 H          -9.6053    3.8952    4.8270 H       1  UNL1        0.1081
     33 H          -3.7858    3.2018    3.7464 H       1  UNL1        0.0660
     34 H          -4.0090    1.8042    4.8686 H       1  UNL1        0.0660
     35 H          -2.7485    1.7794    3.6240 H       1  UNL1        0.0660
     36 H          -4.3726   -0.5672    2.1880 H       1  UNL1        0.0723
     37 H          -5.0640   -1.8735    1.2874 H       1  UNL1        0.0723
     38 H          -5.8265   -0.4539   -0.5394 H       1  UNL1        0.0646
     39 H          -3.5317   -1.4894   -0.6704 H       1  UNL1        0.0536
     40 H          -3.7065   -0.0045   -1.6145 H       1  UNL1        0.0536
     41 H          -2.2821    2.0397   -0.9841 H       1  UNL1        0.0845
     42 H           0.1888    3.1175   -0.1124 H       1  UNL1        0.0329
     43 H           0.5348    2.6086    1.5343 H       1  UNL1        0.0329
     44 H           2.5326    2.3525    0.1764 H       1  UNL1        0.0269
     45 H           1.9835    0.7625    0.6963 H       1  UNL1        0.0269
     46 H           0.9125    0.4112   -1.5611 H       1  UNL1        0.0265
     47 H           1.4846    2.0036   -2.0645 H       1  UNL1        0.0265
     48 H           3.8515    1.2552   -1.6971 H       1  UNL1        0.0265
     49 H           3.2691   -0.3266   -1.1729 H       1  UNL1        0.0265
     50 H           2.2009   -0.6778   -3.4137 H       1  UNL1        0.0265
     51 H           2.7896    0.8999   -3.9404 H       1  UNL1        0.0265
     52 H           5.1503    0.1424   -3.5736 H       1  UNL1        0.0265
     53 H           4.5623   -1.4339   -3.0407 H       1  UNL1        0.0265
     54 H           3.4988   -1.7987   -5.2807 H       1  UNL1        0.0263
     55 H           4.0797   -0.2206   -5.8162 H       1  UNL1        0.0263
     56 H           5.8647   -2.5527   -4.9368 H       1  UNL1        0.0230
     57 H           5.5697   -2.0351   -6.6053 H       1  UNL1        0.0230
     58 H           6.4417   -0.9687   -5.4913 H       1  UNL1        0.0230
     59 H          -4.8136    1.6373    0.9993 H       1  UNL1        0.2100
@<TRIPOS>BOND
     1     1     2   ar
     2     2     3   ar
     3     3     4   ar
     4     4     5   ar
     5     5     6   ar
     6     1     6   ar
     7     7     8    2
     8     1     7    1
     9     9    10    1
    10     3     9    1
    11    15    16   ar
    12    16    17   ar
    13    17    18   ar
    14    18    19   ar
    15    15    19   ar
    16    20    21    1
    17    21    22    1
    18    22    23    1
    19    23    24    1
    20    24    25    1
    21    25    26    1
    22    26    27    1
    23    18    20    1
    24    14    15    1
    25    13    28    1
    26    11    12    1
    27     4    11    1
    28     2    29    1
    29     5    30    1
    30     6    31    1
    31     7    32    1
    32    10    33    1
    33    10    34    1
    34    10    35    1
    35    12    36    1
    36    12    37    1
    37    13    38    1
    38    14    39    1
    39    14    40    1
    40    19    41    1
    41    20    42    1
    42    20    43    1
    43    21    44    1
    44    21    45    1
    45    22    46    1
    46    22    47    1
    47    23    48    1
    48    23    49    1
    49    24    50    1
    50    24    51    1
    51    25    52    1
    52    25    53    1
    53    26    54    1
    54    26    55    1
    55    27    56    1
    56    27    57    1
    57    27    58    1
    58    28    59    1
    59    13    14    1
    60    13    12    1
