@<TRIPOS>MOLECULE
mol_101_akc_s11686_021_00457_6
>100.sdf
 47 48 0 0 0
SMALL
GASTEIGER

@<TRIPOS>ATOM
      1 C           5.2762   -1.5818    0.3418 C.3     1  UNL1       -0.0306
      2 C           4.1944   -1.3499   -0.7019 C.3     1  UNL1        0.0900
      3 O           4.5415   -0.3051   -1.6260 O.3     1  UNL1       -0.4616
      4 C           4.4808    0.9555   -1.1286 C.2     1  UNL1        0.3375
      5 O           4.1625    1.2506    0.0150 O.2     1  UNL1       -0.2452
      6 C           4.8556    1.9451   -2.1689 C.2     1  UNL1        0.0652
      7 C           4.2059    3.1306   -2.2563 C.2     1  UNL1        0.0157
      8 C           3.0375    3.5770   -1.4090 C.3     1  UNL1       -0.0260
      9 N           4.6064    4.0615   -3.2017 N.pl3   1  UNL1       -0.3207
     10 C           5.7649    3.9691   -3.9565 C.2     1  UNL1        0.0157
     11 C           6.0934    5.2032   -4.7605 C.3     1  UNL1       -0.0260
     12 C           6.4932    2.8273   -3.9316 C.2     1  UNL1        0.0652
     13 C           6.0240    1.6153   -3.1132 C.3     1  UNL1        0.0506
     14 C           7.1789    0.9213   -2.3853 C.ar    1  UNL1       -0.0337
     15 C           7.4944   -0.4136   -2.7010 C.ar    1  UNL1       -0.0393
     16 C           8.5347   -1.0660   -2.0458 C.ar    1  UNL1        0.0413
     17 CL          8.8902   -2.7041   -2.4341 Cl      1  UNL1       -0.0835
     18 C           9.2766   -0.4049   -1.0726 C.ar    1  UNL1       -0.0434
     19 C           8.9766    0.9190   -0.7529 C.ar    1  UNL1       -0.0601
     20 C           7.9317    1.5798   -1.4016 C.ar    1  UNL1       -0.0576
     21 C           7.8028    2.7716   -4.6191 C.2     1  UNL1        0.3375
     22 O           8.6021    3.6976   -4.6316 O.2     1  UNL1       -0.2452
     23 O           7.9984    1.5615   -5.2052 O.3     1  UNL1       -0.4616
     24 C           9.2924    1.4238   -5.8115 C.3     1  UNL1        0.0900
     25 C           9.5903   -0.0465   -6.0276 C.3     1  UNL1       -0.0306
     26 H           4.9927   -2.3977    1.0132 H       1  UNL1        0.0262
     27 H           6.2271   -1.8355   -0.1343 H       1  UNL1        0.0262
     28 H           5.4546   -0.6894    0.9491 H       1  UNL1        0.0262
     29 H           4.0680   -2.2634   -1.2928 H       1  UNL1        0.0695
     30 H           3.2271   -1.1327   -0.2346 H       1  UNL1        0.0695
     31 H           3.3299    4.4409   -0.8018 H       1  UNL1        0.0290
     32 H           2.2068    3.8832   -2.0552 H       1  UNL1        0.0290
     33 H           2.6389    2.8149   -0.7395 H       1  UNL1        0.0290
     34 H           4.1562    4.9732   -3.1658 H       1  UNL1        0.1516
     35 H           5.1877    5.5870   -5.2454 H       1  UNL1        0.0290
     36 H           6.4827    5.9867   -4.1026 H       1  UNL1        0.0290
     37 H           6.8123    5.0274   -5.5636 H       1  UNL1        0.0290
     38 H           5.6175    0.9054   -3.8504 H       1  UNL1        0.0451
     39 H           6.9213   -0.9454   -3.4571 H       1  UNL1        0.0635
     40 H          10.0872   -0.9147   -0.5584 H       1  UNL1        0.0632
     41 H           9.5552    1.4385    0.0076 H       1  UNL1        0.0618
     42 H           7.7120    2.6141   -1.1386 H       1  UNL1        0.0621
     43 H           9.2843    1.9482   -6.7727 H       1  UNL1        0.0695
     44 H          10.0733    1.8500   -5.1707 H       1  UNL1        0.0695
     45 H           9.6471   -0.5714   -5.0691 H       1  UNL1        0.0262
     46 H           8.7995   -0.5256   -6.6122 H       1  UNL1        0.0262
     47 H          10.5448   -0.1730   -6.5472 H       1  UNL1        0.0262
@<TRIPOS>BOND
     1     1    26    1
     2     1    27    1
     3     1    28    1
     4     2     1    1
     5     2    29    1
     6     2    30    1
     7     3     2    1
     8     4     3    1
     9     5     4    2
    10     6     4    1
    11     7     6    2
    12     8     7    1
    13     8    31    1
    14     8    32    1
    15     8    33    1
    16     9     7    1
    17     9    34    1
    18    10     9    1
    19    11    10    1
    20    11    35    1
    21    11    36    1
    22    11    37    1
    23    12    10    2
    24    13    12    1
    25    13     6    1
    26    15    14   ar
    27    15    39    1
    28    16    15   ar
    29    17    16    1
    30    18    16   ar
    31    18    40    1
    32    19    18   ar
    33    19    41    1
    34    20    19   ar
    35    20    14   ar
    36    20    42    1
    37    21    12    1
    38    22    21    2
    39    23    21    1
    40    24    23    1
    41    24    43    1
    42    24    44    1
    43    25    24    1
    44    25    45    1
    45    25    46    1
    46    25    47    1
    47    13    14    1
    48    13    38    1
@<TRIPOS>MOLECULE
mol_102_akc_jejmech2021113915
>101.sdf
 39 42 0 0 0
SMALL
GASTEIGER

@<TRIPOS>ATOM
      1 C           0.9084    0.6199   -0.3575 C.3     1  UNL1       -0.0612
      2 C           2.3197    0.1146   -0.0874 C.3     1  UNL1       -0.0284
      3 C           2.8294   -0.7168   -1.2402 C.ar    1  UNL1       -0.0143
      4 C           2.7171   -2.0992   -1.3092 C.ar    1  UNL1        0.1114
      5 C           2.1394   -2.8939   -0.1543 C.3     1  UNL1       -0.0073
      6 C           2.1336   -4.4059   -0.3427 C.3     1  UNL1       -0.0596
      7 N           3.0953   -2.7870   -2.4063 N.ar    1  UNL1        0.0049
      8 N           3.5984   -2.1517   -3.4766 N.ar    1  UNL1       -0.0396
      9 C           3.7808   -0.8121   -3.4589 C.ar    1  UNL1        0.2647
     10 C           3.3905   -0.0771   -2.3387 C.ar    1  UNL1        0.0197
     11 C           4.3566   -0.1703   -4.6321 C.ar    1  UNL1        0.1224
     12 C           4.6924    1.1528   -4.8580 C.ar    1  UNL1       -0.0288
     13 C           5.1997    1.2448   -6.1643 C.ar    1  UNL1       -0.0286
     14 C           5.1716   -0.0183   -6.7129 C.ar    1  UNL1        0.0908
     15 BR          5.7837   -0.2695   -8.4664 Br      1  UNL1       -0.0302
     16 N           4.6635   -0.9030   -5.7754 N.ar    1  UNL1       -0.2924
     17 C           4.4329   -2.3052   -5.8132 C.ar    1  UNL1        0.1237
     18 C           3.9161   -2.9247   -4.6610 C.ar    1  UNL1        0.2644
     19 C           3.6633   -4.3060   -4.6326 C.ar    1  UNL1        0.0161
     20 C           3.9225   -5.0796   -5.7641 C.ar    1  UNL1       -0.0369
     21 C           4.4319   -4.4747   -6.9081 C.ar    1  UNL1        0.0434
     22 CL          4.7414   -5.4273   -8.3045 Cl      1  UNL1       -0.0835
     23 C           4.6902   -3.0993   -6.9375 C.ar    1  UNL1       -0.0129
     24 H           0.5367    1.1875    0.5011 H       1  UNL1        0.0233
     25 H           0.8846    1.2783   -1.2329 H       1  UNL1        0.0233
     26 H           0.2162   -0.2079   -0.5449 H       1  UNL1        0.0233
     27 H           2.9905    0.9681    0.0720 H       1  UNL1        0.0311
     28 H           2.3395   -0.4515    0.8490 H       1  UNL1        0.0311
     29 H           2.7217   -2.6737    0.7487 H       1  UNL1        0.0327
     30 H           1.1087   -2.5624    0.0174 H       1  UNL1        0.0327
     31 H           1.5556   -4.6958   -1.2258 H       1  UNL1        0.0233
     32 H           3.1515   -4.7943   -0.4545 H       1  UNL1        0.0233
     33 H           1.6826   -4.8903    0.5296 H       1  UNL1        0.0233
     34 H           3.4999    1.0058   -2.3239 H       1  UNL1        0.0688
     35 H           4.5876    1.9815   -4.1672 H       1  UNL1        0.0641
     36 H           5.5513    2.1449   -6.6572 H       1  UNL1        0.0644
     37 H           3.2593   -4.8014   -3.7533 H       1  UNL1        0.0685
     38 H           3.7215   -6.1500   -5.7519 H       1  UNL1        0.0634
     39 H           5.0808   -2.7059   -7.8657 H       1  UNL1        0.0655
@<TRIPOS>UNITY_ATOM_ATTR
8 1
charge 1
@<TRIPOS>BOND
     1     1    24    1
     2     1    25    1
     3     1    26    1
     4     2     1    1
     5     2    27    1
     6     2    28    1
     7     3     2    1
     8     4     3   ar
     9     5     4    1
    10     5    29    1
    11     5    30    1
    12     6     5    1
    13     6    31    1
    14     6    32    1
    15     6    33    1
    16     7     4   ar
    17     8     7   ar
    18     9     8   ar
    19    10     9   ar
    20    10     3   ar
    21    10    34    1
    22    11     9   ar
    23    12    11   ar
    24    12    35    1
    25    13    12   ar
    26    13    36    1
    27    14    13   ar
    28    15    14    1
    29    16    14   ar
    30    16    11   ar
    31    17    16   ar
    32    18    17   ar
    33    18     8   ar
    34    19    18   ar
    35    19    37    1
    36    20    19   ar
    37    20    38    1
    38    21    20   ar
    39    22    21    1
    40    23    21   ar
    41    23    17   ar
    42    23    39    1
@<TRIPOS>MOLECULE
mol_103_akc_jcbi2021109690
>102.sdf
 26 26 0 0 0
SMALL
GASTEIGER

@<TRIPOS>ATOM
      1 C           1.7019   -0.4581    1.2371 C.3     1  UNL1        0.0128
      2 C           2.5125   -0.0900    0.0152 C.2     1  UNL1        0.2186
      3 O           2.6233   -0.9417   -0.8663 O.2     1  UNL1       -0.2755
      4 N           3.0587    1.1879   -0.0650 N.am    1  UNL1       -0.2414
      5 C           2.7129    2.3204    0.8090 C.3     1  UNL1        0.1094
      6 C           1.4129    3.0569    0.4399 C.3     1  UNL1       -0.0171
      7 C           0.1359    2.2345    0.5792 C.3     1  UNL1        0.0259
      8 C          -1.1143    3.0200    0.2559 C.2     1  UNL1        0.2106
      9 N          -2.2612    2.2831    0.3473 N.am    1  UNL1       -0.3293
     10 O          -1.1342    4.2024   -0.0474 O.2     1  UNL1       -0.2760
     11 C           3.8709    3.2699    0.5253 C.2     1  UNL1        0.2394
     12 O           4.0958    4.3227    1.1066 O.2     1  UNL1       -0.2734
     13 N           4.5958    2.7817   -0.5056 N.am    1  UNL1       -0.2658
     14 C           4.1746    1.5383   -0.8666 C.2     1  UNL1        0.1462
     15 S           4.9986    0.6888   -2.0297 S.2     1  UNL1       -0.0179
     16 H           0.7180   -0.8081    0.9070 H       1  UNL1        0.0323
     17 H           2.2101   -1.2680    1.7663 H       1  UNL1        0.0323
     18 H           1.5538    0.3503    1.9467 H       1  UNL1        0.0323
     19 H           2.7576    2.0227    1.8597 H       1  UNL1        0.0601
     20 H           1.3273    3.9441    1.0836 H       1  UNL1        0.0293
     21 H           1.4796    3.4454   -0.5854 H       1  UNL1        0.0293
     22 H           0.1619    1.3811   -0.1047 H       1  UNL1        0.0359
     23 H           0.0317    1.8772    1.6088 H       1  UNL1        0.0359
     24 H          -3.1329    2.7439    0.1111 H       1  UNL1        0.1449
     25 H          -2.2722    1.2868    0.5070 H       1  UNL1        0.1449
     26 H           5.4186    3.2315   -0.8786 H       1  UNL1        0.1566
@<TRIPOS>BOND
     1     1    16    1
     2     1    17    1
     3     1    18    1
     4     2     1    1
     5     3     2    2
     6     4     2   am
     7     5     4    1
     8     5    19    1
     9     6     5    1
    10     6    20    1
    11     6    21    1
    12     7     6    1
    13     7    22    1
    14     7    23    1
    15     8     7    1
    16     9     8   am
    17     9    24    1
    18     9    25    1
    19    10     8    2
    20    11     5    1
    21    12    11    2
    22    13    11   am
    23    13    26    1
    24    14    13    1
    25    14     4    1
    26    15    14    2
@<TRIPOS>MOLECULE
mol_104_akc_jcbi2021109690
>103.sdf
 33 35 0 0 0
SMALL
GASTEIGER

@<TRIPOS>ATOM
      1 C           5.4486   -3.8391    1.4071 C.3     1  UNL1        0.0128
      2 C           4.4904   -3.6887    2.5641 C.2     1  UNL1        0.2186
      3 O           4.7261   -4.3276    3.5900 O.2     1  UNL1       -0.2755
      4 N           3.3670   -2.8847    2.3836 N.am    1  UNL1       -0.2411
      5 C           3.0122   -2.2073    1.1291 C.3     1  UNL1        0.1129
      6 C           2.6613   -3.0920   -0.0732 C.3     1  UNL1        0.0020
      7 C           1.5776   -4.0950    0.1712 C.ar    1  UNL1       -0.0201
      8 C           1.7238   -5.3467    0.7363 C.ar    1  UNL1        0.0060
      9 N           0.4925   -5.9454    0.7803 N.ar    1  UNL1       -0.3604
     10 C          -0.4608   -5.1121    0.2448 C.ar    1  UNL1        0.0467
     11 C          -1.8390   -5.3006    0.0878 C.ar    1  UNL1       -0.0378
     12 C          -2.5729   -4.2702   -0.5066 C.ar    1  UNL1       -0.0598
     13 C          -1.9483   -3.0985   -0.9298 C.ar    1  UNL1       -0.0611
     14 C          -0.5700   -2.9276   -0.7661 C.ar    1  UNL1       -0.0523
     15 C           0.1920   -3.9484   -0.1607 C.ar    1  UNL1        0.0029
     16 C           1.8198   -1.3644    1.5481 C.2     1  UNL1        0.2398
     17 O           1.2093   -0.5777    0.8407 O.2     1  UNL1       -0.2734
     18 N           1.5708   -1.5946    2.8597 N.am    1  UNL1       -0.2658
     19 C           2.4766   -2.4575    3.4021 C.2     1  UNL1        0.1462
     20 S           2.4258   -2.8011    5.0253 S.2     1  UNL1       -0.0179
     21 H           6.4693   -3.8718    1.8013 H       1  UNL1        0.0323
     22 H           5.2352   -4.7799    0.8944 H       1  UNL1        0.0323
     23 H           5.4127   -3.0123    0.6989 H       1  UNL1        0.0323
     24 H           3.8236   -1.5153    0.8731 H       1  UNL1        0.0604
     25 H           2.3675   -2.4483   -0.9130 H       1  UNL1        0.0337
     26 H           3.5463   -3.6317   -0.4247 H       1  UNL1        0.0337
     27 H           2.5937   -5.8676    1.1157 H       1  UNL1        0.0810
     28 H           0.3050   -6.8676    1.1496 H       1  UNL1        0.1653
     29 H          -2.3288   -6.2123    0.4143 H       1  UNL1        0.0638
     30 H          -3.6458   -4.3802   -0.6354 H       1  UNL1        0.0618
     31 H          -2.5343   -2.3068   -1.3900 H       1  UNL1        0.0618
     32 H          -0.1002   -2.0059   -1.0993 H       1  UNL1        0.0624
     33 H           0.8348   -1.1425    3.3791 H       1  UNL1        0.1566
@<TRIPOS>BOND
     1     1    21    1
     2     1    22    1
     3     1    23    1
     4     2     1    1
     5     3     2    2
     6     4     2   am
     7     5     4    1
     8     6    25    1
     9     6    26    1
    10     7     6    1
    11     8     7   ar
    12     8    27    1
    13     9     8   ar
    14     9    28    1
    15    10     9   ar
    16    11    10   ar
    17    11    29    1
    18    12    11   ar
    19    12    30    1
    20    13    12   ar
    21    13    31    1
    22    14    13   ar
    23    14    32    1
    24    15    14   ar
    25    15     7   ar
    26    15    10   ar
    27    16     5    1
    28    17    16    2
    29    18    16   am
    30    18    33    1
    31    19    18    1
    32    19     4    1
    33    20    19    2
    34     5     6    1
    35     5    24    1
@<TRIPOS>MOLECULE
mol_105_akc_1475636620222117316
>104.sdf
 56 60 0 0 0
SMALL
GASTEIGER

@<TRIPOS>ATOM
      1 C           3.6910   -1.7596   -0.6244 C.3     1  UNL1        0.0140
      2 C           2.8688   -0.5036   -0.7895 C.2     1  UNL1        0.2322
      3 O           1.8785   -0.3109   -0.0818 O.2     1  UNL1       -0.2741
      4 N           3.3131    0.4104   -1.7272 N.am    1  UNL1       -0.1852
      5 N           4.4090    0.1782   -2.5182 N.2     1  UNL1       -0.1809
      6 C           4.7408    1.3130   -3.0474 C.2     1  UNL1        0.0688
      7 C           3.9153    2.4905   -2.6114 C.3     1  UNL1        0.0165
      8 C           2.8639    1.7998   -1.7519 C.3     1  UNL1        0.0828
      9 C           1.4877    1.9734   -2.3147 C.ar    1  UNL1        0.0210
     10 C           0.8538    1.1850   -3.2568 C.ar    1  UNL1        0.0369
     11 N          -0.4203    1.6698   -3.4124 N.ar    1  UNL1       -0.2390
     12 N          -0.5911    2.8227   -2.7252 N.ar    1  UNL1       -0.1660
     13 C           0.5329    2.9958   -2.0101 C.ar    1  UNL1        0.0981
     14 C           0.6358    4.1189   -1.0617 C.ar    1  UNL1        0.0024
     15 C          -0.5090    4.5700   -0.3876 C.ar    1  UNL1       -0.0525
     16 C          -0.4297    5.6019    0.5534 C.ar    1  UNL1       -0.0611
     17 C           0.7966    6.1963    0.8377 C.ar    1  UNL1       -0.0617
     18 C           1.9385    5.7779    0.1627 C.ar    1  UNL1       -0.0611
     19 C           1.8522    4.7608   -0.7928 C.ar    1  UNL1       -0.0525
     20 C          -1.4857    1.0951   -4.1631 C.ar    1  UNL1        0.0654
     21 C          -1.3352   -0.1482   -4.7905 C.ar    1  UNL1       -0.0360
     22 C          -2.4059   -0.7206   -5.4835 C.ar    1  UNL1       -0.0568
     23 C          -3.6374   -0.0627   -5.5616 C.ar    1  UNL1       -0.0503
     24 C          -4.7924   -0.6803   -6.2927 C.3     1  UNL1       -0.0397
     25 C          -3.7812    1.1844   -4.9462 C.ar    1  UNL1       -0.0568
     26 C          -2.7162    1.7616   -4.2481 C.ar    1  UNL1       -0.0360
     27 C           5.8805    1.4778   -3.9785 C.ar    1  UNL1       -0.0022
     28 C           6.6228    0.3527   -4.3494 C.ar    1  UNL1       -0.0528
     29 C           7.7015    0.4858   -5.2280 C.ar    1  UNL1       -0.0611
     30 C           8.0345    1.7378   -5.7400 C.ar    1  UNL1       -0.0617
     31 C           7.2979    2.8625   -5.3689 C.ar    1  UNL1       -0.0611
     32 C           6.2231    2.7366   -4.4883 C.ar    1  UNL1       -0.0528
     33 H           3.8198   -1.9405    0.4481 H       1  UNL1        0.0323
     34 H           3.1739   -2.6058   -1.0799 H       1  UNL1        0.0323
     35 H           4.6934   -1.6744   -1.0496 H       1  UNL1        0.0323
     36 H           3.5050    3.0294   -3.4705 H       1  UNL1        0.0351
     37 H           4.5404    3.1603   -2.0111 H       1  UNL1        0.0351
     38 H           2.8928    2.1631   -0.7182 H       1  UNL1        0.0576
     39 H           1.2043    0.3039   -3.7740 H       1  UNL1        0.0834
     40 H          -1.4753    4.1100   -0.5876 H       1  UNL1        0.0624
     41 H          -1.3279    5.9345    1.0673 H       1  UNL1        0.0618
     42 H           0.8616    6.9891    1.5781 H       1  UNL1        0.0618
     43 H           2.8975    6.2437    0.3747 H       1  UNL1        0.0618
     44 H           2.7571    4.4983   -1.3228 H       1  UNL1        0.0624
     45 H          -0.4089   -0.7122   -4.7430 H       1  UNL1        0.0639
     46 H          -2.2715   -1.6939   -5.9518 H       1  UNL1        0.0621
     47 H          -5.6534   -0.7798   -5.6238 H       1  UNL1        0.0278
     48 H          -5.0701   -0.0609   -7.1509 H       1  UNL1        0.0278
     49 H          -4.5432   -1.6801   -6.6640 H       1  UNL1        0.0278
     50 H          -4.7317    1.7149   -4.9964 H       1  UNL1        0.0621
     51 H          -2.8630    2.7288   -3.7705 H       1  UNL1        0.0639
     52 H           6.3753   -0.6302   -3.9587 H       1  UNL1        0.0624
     53 H           8.2768   -0.3906   -5.5157 H       1  UNL1        0.0618
     54 H           8.8684    1.8389   -6.4291 H       1  UNL1        0.0618
     55 H           7.5618    3.8390   -5.7688 H       1  UNL1        0.0618
     56 H           5.6734    3.6323   -4.2172 H       1  UNL1        0.0624
@<TRIPOS>BOND
     1     1    33    1
     2     1    34    1
     3     1    35    1
     4     2     1    1
     5     3     2    2
     6     4     2   am
     7     5     4    1
     8     6     5    2
     9     7     6    1
    10     7    36    1
    11     7    37    1
    12     8     7    1
    13     8     4    1
    14    10     9   ar
    15    10    39    1
    16    11    10   ar
    17    12    11   ar
    18    13    12   ar
    19    13     9   ar
    20    14    13    1
    21    15    14   ar
    22    15    40    1
    23    16    15   ar
    24    16    41    1
    25    17    16   ar
    26    17    42    1
    27    18    17   ar
    28    18    43    1
    29    19    18   ar
    30    19    14   ar
    31    19    44    1
    32    20    11    1
    33    21    20   ar
    34    21    45    1
    35    22    21   ar
    36    22    46    1
    37    23    22   ar
    38    24    23    1
    39    24    47    1
    40    24    48    1
    41    24    49    1
    42    25    23   ar
    43    25    50    1
    44    26    25   ar
    45    26    20   ar
    46    26    51    1
    47    27     6    1
    48    28    27   ar
    49    28    52    1
    50    29    28   ar
    51    29    53    1
    52    30    29   ar
    53    30    54    1
    54    31    30   ar
    55    31    55    1
    56    32    31   ar
    57    32    27   ar
    58    32    56    1
    59     8     9    1
    60     8    38    1
@<TRIPOS>MOLECULE
mol_106_akc_1475636620222117316
>104_2.sdf
 56 60 0 0 0
SMALL
GASTEIGER

@<TRIPOS>ATOM
      1 C           5.3764    0.2062   -0.8244 C.3     1  UNL1        0.0140
      2 C           4.1433    0.2955    0.0477 C.2     1  UNL1        0.2322
      3 O           3.2644   -0.5669   -0.0197 O.2     1  UNL1       -0.2741
      4 N           4.0643    1.4002    0.8753 N.am    1  UNL1       -0.1852
      5 N           4.9682    2.4245    0.7659 N.2     1  UNL1       -0.1809
      6 C           4.5313    3.4025    1.4992 C.2     1  UNL1        0.0688
      7 C           3.2486    3.1319    2.2246 C.3     1  UNL1        0.0165
      8 C           2.9035    1.7351    1.7123 C.3     1  UNL1        0.0828
      9 C           2.7035    0.7517    2.8314 C.ar    1  UNL1        0.0210
     10 C           3.6544   -0.0932    3.3728 C.ar    1  UNL1        0.0369
     11 N           3.0491   -0.8404    4.3491 N.ar    1  UNL1       -0.2390
     12 N           1.7411   -0.5198    4.4687 N.ar    1  UNL1       -0.1660
     13 C           1.5164    0.4673    3.5863 C.ar    1  UNL1        0.0981
     14 C           0.1865    1.0969    3.5353 C.ar    1  UNL1        0.0024
     15 C           0.0342    2.4741    3.3285 C.ar    1  UNL1       -0.0525
     16 C          -1.2275    3.0738    3.3167 C.ar    1  UNL1       -0.0611
     17 C          -2.3642    2.3049    3.5433 C.ar    1  UNL1       -0.0617
     18 C          -2.2357    0.9379    3.7782 C.ar    1  UNL1       -0.0611
     19 C          -0.9698    0.3381    3.7707 C.ar    1  UNL1       -0.0525
     20 C           3.6557   -1.7983    5.2098 C.ar    1  UNL1        0.0654
     21 C           5.0348   -2.0439    5.1605 C.ar    1  UNL1       -0.0360
     22 C           5.6224   -2.9401    6.0588 C.ar    1  UNL1       -0.0568
     23 C           4.8449   -3.6060    7.0110 C.ar    1  UNL1       -0.0503
     24 C           5.4724   -4.5478    7.9950 C.3     1  UNL1       -0.0397
     25 C           3.4635   -3.3824    7.0387 C.ar    1  UNL1       -0.0568
     26 C           2.8708   -2.4836    6.1471 C.ar    1  UNL1       -0.0360
     27 C           5.2296    4.7034    1.5920 C.ar    1  UNL1       -0.0022
     28 C           6.4173    4.8785    0.8713 C.ar    1  UNL1       -0.0528
     29 C           7.0827    6.1041    0.8996 C.ar    1  UNL1       -0.0611
     30 C           6.5633    7.1590    1.6478 C.ar    1  UNL1       -0.0617
     31 C           5.3835    6.9872    2.3729 C.ar    1  UNL1       -0.0611
     32 C           4.7154    5.7607    2.3497 C.ar    1  UNL1       -0.0528
     33 H           5.6904   -0.8386   -0.8977 H       1  UNL1        0.0323
     34 H           5.1354    0.5879   -1.8202 H       1  UNL1        0.0323
     35 H           6.2227    0.7674   -0.4203 H       1  UNL1        0.0323
     36 H           2.4954    3.8685    1.9236 H       1  UNL1        0.0351
     37 H           3.4146    3.1767    3.3050 H       1  UNL1        0.0351
     38 H           2.0191    1.7493    1.0635 H       1  UNL1        0.0576
     39 H           4.6939   -0.2196    3.1139 H       1  UNL1        0.0834
     40 H           0.8921    3.1198    3.2201 H       1  UNL1        0.0624
     41 H          -1.3190    4.1437    3.1515 H       1  UNL1        0.0618
     42 H          -3.3450    2.7721    3.5537 H       1  UNL1        0.0618
     43 H          -3.1184    0.3367    3.9780 H       1  UNL1        0.0618
     44 H          -0.8900   -0.7299    3.9688 H       1  UNL1        0.0624
     45 H           5.6872   -1.5450    4.4512 H       1  UNL1        0.0639
     46 H           6.6971   -3.1038    6.0143 H       1  UNL1        0.0621
     47 H           5.2456   -4.2284    9.0175 H       1  UNL1        0.0278
     48 H           5.0947   -5.5632    7.8409 H       1  UNL1        0.0278
     49 H           6.5621   -4.5711    7.8891 H       1  UNL1        0.0278
     50 H           2.8387   -3.8995    7.7637 H       1  UNL1        0.0621
     51 H           1.7956   -2.3227    6.2004 H       1  UNL1        0.0639
     52 H           6.8296    4.0657    0.2763 H       1  UNL1        0.0624
     53 H           8.0015    6.2349    0.3334 H       1  UNL1        0.0618
     54 H           7.0781    8.1157    1.6637 H       1  UNL1        0.0618
     55 H           4.9827    7.8148    2.9540 H       1  UNL1        0.0618
     56 H           3.7981    5.6600    2.9213 H       1  UNL1        0.0624
@<TRIPOS>BOND
     1     1    33    1
     2     1    34    1
     3     1    35    1
     4     2     1    1
     5     3     2    2
     6     4     2   am
     7     5     4    1
     8     6     5    2
     9     7     6    1
    10     7    36    1
    11     7    37    1
    12     8     7    1
    13     8     4    1
    14     8    38    1
    15     9     8    1
    16    10     9   ar
    17    10    39    1
    18    11    10   ar
    19    12    11   ar
    20    13    12   ar
    21    13     9   ar
    22    14    13    1
    23    15    14   ar
    24    15    40    1
    25    16    15   ar
    26    16    41    1
    27    17    16   ar
    28    17    42    1
    29    18    17   ar
    30    18    43    1
    31    19    18   ar
    32    19    14   ar
    33    19    44    1
    34    20    11    1
    35    21    20   ar
    36    21    45    1
    37    22    21   ar
    38    22    46    1
    39    23    22   ar
    40    24    23    1
    41    24    47    1
    42    24    48    1
    43    24    49    1
    44    25    23   ar
    45    25    50    1
    46    26    25   ar
    47    26    20   ar
    48    26    51    1
    49    27     6    1
    50    28    27   ar
    51    28    52    1
    52    29    28   ar
    53    29    53    1
    54    30    29   ar
    55    30    54    1
    56    31    30   ar
    57    31    55    1
    58    32    31   ar
    59    32    27   ar
    60    32    56    1
@<TRIPOS>MOLECULE
mol_107_akc_1475636620222117316
>105.sdf
 59 63 0 0 0
SMALL
GASTEIGER

@<TRIPOS>ATOM
      1 C           5.5904   -2.7505   -0.8768 C.3     1  UNL1       -0.0648
      2 C           4.7118   -1.5141   -0.7463 C.3     1  UNL1       -0.0476
      3 C           5.5082   -0.2598   -1.0838 C.3     1  UNL1        0.0256
      4 C           4.7399    1.0363   -0.8537 C.2     1  UNL1        0.2353
      5 O           3.8345    1.1249   -0.0291 O.2     1  UNL1       -0.2738
      6 N           5.2265    2.1258   -1.5653 N.am    1  UNL1       -0.1850
      7 N           6.2620    2.0018   -2.4577 N.2     1  UNL1       -0.1809
      8 C           6.6569    3.2009   -2.7540 C.2     1  UNL1        0.0688
      9 C           5.9590    4.3034   -2.0102 C.3     1  UNL1        0.0165
     10 C           4.8906    3.5141   -1.2564 C.3     1  UNL1        0.0828
     11 C           3.5095    3.9030   -1.6919 C.ar    1  UNL1        0.0210
     12 C           2.7695    3.3852   -2.7389 C.ar    1  UNL1        0.0369
     13 N           1.5576    4.0302   -2.7534 N.ar    1  UNL1       -0.2390
     14 N           1.5070    4.9944   -1.8057 N.ar    1  UNL1       -0.1660
     15 C           2.6641    4.9161   -1.1301 C.ar    1  UNL1        0.0981
     16 C           2.9008    5.8010    0.0239 C.ar    1  UNL1        0.0024
     17 C           1.8273    6.1789    0.8451 C.ar    1  UNL1       -0.0525
     18 C           2.0313    6.9784    1.9751 C.ar    1  UNL1       -0.0611
     19 C           3.3136    7.4098    2.3036 C.ar    1  UNL1       -0.0617
     20 C           4.3861    7.0680    1.4868 C.ar    1  UNL1       -0.0611
     21 C           4.1759    6.2854    0.3469 C.ar    1  UNL1       -0.0525
     22 C           0.4497    3.7969   -3.6188 C.ar    1  UNL1        0.0655
     23 C           0.4749    2.7676   -4.5718 C.ar    1  UNL1       -0.0349
     24 C          -0.6324    2.5499   -5.4005 C.ar    1  UNL1       -0.0414
     25 C          -1.7626    3.3559   -5.2816 C.ar    1  UNL1        0.0411
     26 CL         -3.1217    3.0763   -6.2990 Cl      1  UNL1       -0.0835
     27 C          -1.7988    4.3834   -4.3424 C.ar    1  UNL1       -0.0414
     28 C          -0.6967    4.6044   -3.5106 C.ar    1  UNL1       -0.0349
     29 C           7.7478    3.4776   -3.7161 C.ar    1  UNL1       -0.0022
     30 C           8.3812    2.4016   -4.3508 C.ar    1  UNL1       -0.0528
     31 C           9.4128    2.6327   -5.2626 C.ar    1  UNL1       -0.0611
     32 C           9.8139    3.9360   -5.5433 C.ar    1  UNL1       -0.0617
     33 C           9.1874    5.0119   -4.9136 C.ar    1  UNL1       -0.0611
     34 C           8.1563    4.7857   -4.0001 C.ar    1  UNL1       -0.0528
     35 H           5.0069   -3.6580   -0.6976 H       1  UNL1        0.0230
     36 H           6.0278   -2.8186   -1.8787 H       1  UNL1        0.0230
     37 H           6.4098   -2.7228   -0.1507 H       1  UNL1        0.0230
     38 H           3.8574   -1.5984   -1.4281 H       1  UNL1        0.0267
     39 H           4.3070   -1.4600    0.2702 H       1  UNL1        0.0267
     40 H           6.4006   -0.2069   -0.4468 H       1  UNL1        0.0359
     41 H           5.8411   -0.3335   -2.1242 H       1  UNL1        0.0359
     42 H           5.5553    5.0537   -2.6966 H       1  UNL1        0.0351
     43 H           6.6700    4.7687   -1.3204 H       1  UNL1        0.0351
     44 H           4.9909    3.6376   -0.1723 H       1  UNL1        0.0576
     45 H           3.0155    2.6023   -3.4400 H       1  UNL1        0.0834
     46 H           0.8184    5.8435    0.6114 H       1  UNL1        0.0624
     47 H           1.1869    7.2564    2.6003 H       1  UNL1        0.0618
     48 H           3.4753    8.0180    3.1897 H       1  UNL1        0.0618
     49 H           5.3876    7.4119    1.7330 H       1  UNL1        0.0618
     50 H           5.0320    6.0813   -0.2813 H       1  UNL1        0.0624
     51 H           1.3307    2.1107   -4.6906 H       1  UNL1        0.0639
     52 H          -0.6073    1.7454   -6.1313 H       1  UNL1        0.0633
     53 H          -2.6790    5.0134   -4.2475 H       1  UNL1        0.0633
     54 H          -0.7449    5.4115   -2.7809 H       1  UNL1        0.0639
     55 H           8.0785    1.3779   -4.1405 H       1  UNL1        0.0624
     56 H           9.9018    1.7948   -5.7531 H       1  UNL1        0.0618
     57 H          10.6170    4.1150   -6.2550 H       1  UNL1        0.0618
     58 H           9.5036    6.0280   -5.1363 H       1  UNL1        0.0618
     59 H           7.6905    5.6445   -3.5264 H       1  UNL1        0.0624
@<TRIPOS>BOND
     1     1    35    1
     2     1    36    1
     3     1    37    1
     4     2     1    1
     5     2    38    1
     6     2    39    1
     7     3     2    1
     8     3    40    1
     9     3    41    1
    10     4     3    1
    11     5     4    2
    12     6     4   am
    13     7     6    1
    14     8     7    2
    15     9     8    1
    16     9    42    1
    17     9    43    1
    18    10     9    1
    19    10     6    1
    20    12    11   ar
    21    12    45    1
    22    13    12   ar
    23    14    13   ar
    24    15    14   ar
    25    15    11   ar
    26    16    15    1
    27    17    16   ar
    28    17    46    1
    29    18    17   ar
    30    18    47    1
    31    19    18   ar
    32    19    48    1
    33    20    19   ar
    34    20    49    1
    35    21    20   ar
    36    21    16   ar
    37    21    50    1
    38    22    13    1
    39    23    22   ar
    40    23    51    1
    41    24    23   ar
    42    24    52    1
    43    25    24   ar
    44    26    25    1
    45    27    25   ar
    46    27    53    1
    47    28    27   ar
    48    28    22   ar
    49    28    54    1
    50    29     8    1
    51    30    29   ar
    52    30    55    1
    53    31    30   ar
    54    31    56    1
    55    32    31   ar
    56    32    57    1
    57    33    32   ar
    58    33    58    1
    59    34    33   ar
    60    34    29   ar
    61    34    59    1
    62    10    11    1
    63    10    44    1
@<TRIPOS>MOLECULE
mol_108_akc_acsmedchemlett2c00170
>106.sdf
 43 46 0 0 0
SMALL
GASTEIGER

@<TRIPOS>ATOM
      1 N           6.9615   -2.8730    7.8249 N.3     1  UNL1       -0.2553
      2 N           7.3475   -3.6992    6.7432 N.pl3   1  UNL1       -0.2657
      3 C           6.8971   -3.3358    5.4325 C.ar    1  UNL1        0.1617
      4 N           5.9264   -2.3939    5.3269 N.ar    1  UNL1       -0.2175
      5 C           5.4663   -2.1582    4.0989 C.ar    1  UNL1        0.1190
      6 N           5.8749   -2.7717    2.9853 N.ar    1  UNL1       -0.2303
      7 C           6.8332   -3.7239    3.1307 C.ar    1  UNL1        0.1342
      8 C           7.3008   -4.4928    2.0619 C.ar    1  UNL1        0.1525
      9 N           6.6835   -4.3215    0.7985 N.pl3   1  UNL1       -0.2975
     10 C           6.4567   -5.2733   -0.2061 C.ar    1  UNL1        0.0359
     11 C           6.3725   -4.8794   -1.5454 C.ar    1  UNL1       -0.0403
     12 C           6.1763   -5.8263   -2.5546 C.ar    1  UNL1       -0.0566
     13 C           6.0733   -7.1801   -2.2334 C.ar    1  UNL1       -0.0198
     14 C           6.1828   -7.5964   -0.9085 C.ar    1  UNL1        0.1227
     15 O           6.0913   -8.9472   -0.7017 O.3     1  UNL1       -0.4873
     16 C           6.5493   -9.4132    0.5716 C.3     1  UNL1        0.1147
     17 C           6.7197  -10.9128    0.5775 C.ar    1  UNL1       -0.0075
     18 C           6.8939  -11.6469   -0.5990 C.ar    1  UNL1       -0.0372
     19 C           7.1047  -13.0139   -0.5107 C.ar    1  UNL1        0.0279
     20 N           7.1614  -13.6902    0.6547 N.ar    1  UNL1       -0.2632
     21 C           7.0030  -12.9672    1.7822 C.ar    1  UNL1        0.0279
     22 C           6.7865  -11.5984    1.7953 C.ar    1  UNL1       -0.0372
     23 C           6.3640   -6.6408    0.0925 C.ar    1  UNL1        0.0013
     24 N           8.2558   -5.4457    2.1864 N.ar    1  UNL1       -0.2184
     25 C           8.7748   -5.6270    3.3979 C.ar    1  UNL1        0.1190
     26 N           8.3992   -4.9769    4.4982 N.ar    1  UNL1       -0.2302
     27 C           7.4170   -4.0514    4.3497 C.ar    1  UNL1        0.1350
     28 H           7.2690   -1.9110    7.6493 H       1  UNL1        0.1404
     29 H           5.9378   -2.8024    7.8193 H       1  UNL1        0.1404
     30 H           8.3346   -3.9741    6.7023 H       1  UNL1        0.1675
     31 H           4.6870   -1.4104    3.9966 H       1  UNL1        0.1048
     32 H           6.4261   -3.3626    0.6002 H       1  UNL1        0.1536
     33 H           6.4714   -3.8322   -1.8180 H       1  UNL1        0.0636
     34 H           6.1136   -5.5106   -3.5926 H       1  UNL1        0.0619
     35 H           5.9222   -7.9143   -3.0203 H       1  UNL1        0.0654
     36 H           7.5266   -8.9756    0.8136 H       1  UNL1        0.0748
     37 H           5.8092   -9.1410    1.3343 H       1  UNL1        0.0748
     38 H           6.8701  -11.1660   -1.5739 H       1  UNL1        0.0636
     39 H           7.2380  -13.6153   -1.4054 H       1  UNL1        0.0829
     40 H           7.0624  -13.5330    2.7069 H       1  UNL1        0.0829
     41 H           6.6777  -11.0785    2.7431 H       1  UNL1        0.0636
     42 H           6.4090   -6.9385    1.1338 H       1  UNL1        0.0673
     43 H           9.5599   -6.3680    3.4965 H       1  UNL1        0.1048
@<TRIPOS>BOND
     1     1    28    1
     2     1    29    1
     3     2     1    1
     4     2    30    1
     5     3     2    1
     6     4     3   ar
     7     5     4   ar
     8     5    31    1
     9     6     5   ar
    10     7     6   ar
    11     8     7   ar
    12     9     8    1
    13     9    32    1
    14    10     9    1
    15    11    10   ar
    16    11    33    1
    17    12    11   ar
    18    12    34    1
    19    13    12   ar
    20    13    35    1
    21    14    13   ar
    22    15    14    1
    23    16    15    1
    24    16    36    1
    25    16    37    1
    26    17    16    1
    27    18    17   ar
    28    18    38    1
    29    19    18   ar
    30    19    39    1
    31    20    19   ar
    32    21    20   ar
    33    21    40    1
    34    22    21   ar
    35    22    17   ar
    36    22    41    1
    37    23    14   ar
    38    23    10   ar
    39    23    42    1
    40    24     8   ar
    41    25    24   ar
    42    25    43    1
    43    26    25   ar
    44    27    26   ar
    45    27     3   ar
    46    27     7   ar
@<TRIPOS>MOLECULE
mol_109_akc_cmdc202100413
>107.sdf
 34 36 0 0 0
SMALL
GASTEIGER

@<TRIPOS>ATOM
      1 C           0.8958   -0.0509   -0.0365 C.3     1  UNL1       -0.0193
      2 C           0.3193   -0.5517    1.2866 C.3     1  UNL1        0.0121
      3 N          -1.0987   -0.2031    1.3822 N.pl3   1  UNL1       -0.3271
      4 C          -1.6898   -0.6012    2.6133 C.ar    1  UNL1        0.1490
      5 N          -0.9327   -1.2286    3.5472 N.ar    1  UNL1       -0.1338
      6 N          -1.4582   -1.6232    4.7406 N.ar    1  UNL1       -0.1553
      7 C          -2.7501   -1.3602    5.0021 C.ar    1  UNL1        0.0578
      8 C          -3.5874   -0.7066    4.1097 C.ar    1  UNL1        0.0053
      9 C          -4.9293   -0.4327    4.4329 C.ar    1  UNL1       -0.0524
     10 C          -5.7556    0.2314    3.5290 C.ar    1  UNL1       -0.0611
     11 C          -5.2520    0.6229    2.2936 C.ar    1  UNL1       -0.0611
     12 C          -3.9187    0.3572    1.9654 C.ar    1  UNL1       -0.0506
     13 C          -3.0534   -0.3128    2.8656 C.ar    1  UNL1        0.0251
     14 C           2.3724   -0.4298   -0.1409 C.3     1  UNL1        0.0256
     15 N           2.9772    0.0092   -1.3823 N.ar    1  UNL1       -0.3368
     16 C           3.6034    1.2029   -1.5980 C.ar    1  UNL1        0.0240
     17 C           4.0642    1.1308   -2.8923 C.ar    1  UNL1        0.0454
     18 N           3.7319   -0.0719   -3.4606 N.ar    1  UNL1       -0.2441
     19 C           3.0824   -0.7286   -2.5257 C.ar    1  UNL1        0.0959
     20 H           0.7799    1.0380   -0.1075 H       1  UNL1        0.0297
     21 H           0.3363   -0.4780   -0.8775 H       1  UNL1        0.0297
     22 H           0.4472   -1.6401    1.3470 H       1  UNL1        0.0462
     23 H           0.8780   -0.0871    2.1084 H       1  UNL1        0.0462
     24 H          -1.6514   -0.6053    0.6289 H       1  UNL1        0.1475
     25 H          -3.0916   -1.6967    5.9749 H       1  UNL1        0.0854
     26 H          -5.3373   -0.7284    5.3978 H       1  UNL1        0.0624
     27 H          -6.7884    0.4472    3.7918 H       1  UNL1        0.0618
     28 H          -5.8931    1.1444    1.5866 H       1  UNL1        0.0618
     29 H          -3.5495    0.6941    0.9990 H       1  UNL1        0.0625
     30 H           2.9497    0.0139    0.6785 H       1  UNL1        0.0492
     31 H           2.4999   -1.5171   -0.0820 H       1  UNL1        0.0492
     32 H           3.6760    1.9757   -0.8453 H       1  UNL1        0.0825
     33 H           4.6214    1.8780   -3.4431 H       1  UNL1        0.0845
     34 H           2.6789   -1.7282   -2.6257 H       1  UNL1        0.1029
@<TRIPOS>BOND
     1     1    20    1
     2     1    21    1
     3     2     1    1
     4     2    22    1
     5     2    23    1
     6     3     2    1
     7     3    24    1
     8     4     3    1
     9     5     4   ar
    10     6     5   ar
    11     7     6   ar
    12     7    25    1
    13     8     7   ar
    14     9     8   ar
    15     9    26    1
    16    10     9   ar
    17    10    27    1
    18    11    10   ar
    19    11    28    1
    20    12    11   ar
    21    12    29    1
    22    13    12   ar
    23    13     4   ar
    24    13     8   ar
    25    14     1    1
    26    14    30    1
    27    14    31    1
    28    15    14    1
    29    16    15   ar
    30    16    32    1
    31    17    16   ar
    32    17    33    1
    33    18    17   ar
    34    19    18   ar
    35    19    15   ar
    36    19    34    1
@<TRIPOS>MOLECULE
mol_10_akc_ph15020148
>10.sdf
 89 91 0 0 0
SMALL
GASTEIGER

@<TRIPOS>ATOM
      1 C           0.8273    0.2287    0.0717 C.3     1  UNL1       -0.0388
      2 C           2.3280    0.1141    0.0709 C.ar    1  UNL1       -0.0326
      3 C           3.0782    1.2990    0.0670 C.ar    1  UNL1       -0.0161
      4 C           4.4770    1.2791    0.0668 C.ar    1  UNL1        0.1243
      5 O           5.2806    2.3928    0.0664 O.3     1  UNL1       -0.4918
      6 C           4.5696    3.6247    0.0674 C.3     1  UNL1        0.0896
      7 C           5.5304    4.8058    0.0769 C.3     1  UNL1       -0.0185
      8 C           4.7066    6.0904    0.1151 C.3     1  UNL1       -0.0452
      9 C           5.5682    7.3467    0.1715 C.3     1  UNL1       -0.0125
     10 C           4.7336    8.6264    0.1261 C.3     1  UNL1       -0.0332
     11 N           3.8271    8.7019    1.3213 N.4     1  UNL1        0.2307
     12 C           2.9003    9.8958    1.4551 C.3     1  UNL1       -0.0204
     13 C           1.9082    9.9025    0.2890 C.3     1  UNL1       -0.0193
     14 C           2.1401    9.7055    2.7763 C.3     1  UNL1       -0.0193
     15 C           3.7294   11.1786    1.5093 C.3     1  UNL1       -0.0193
     16 C           5.1384    0.0545    0.0659 C.ar    1  UNL1        0.0231
     17 C           4.4086   -1.1397    0.0669 C.ar    1  UNL1        0.1430
     18 C           3.0122   -1.1144    0.0697 C.ar    1  UNL1        0.0678
     19 C           2.2990   -2.4073    0.0727 C.ar    1  UNL1        0.2040
     20 O           1.0798   -2.4477    0.0816 O.2     1  UNL1       -0.2863
     21 C           3.1127   -3.6357    0.0707 C.ar    1  UNL1        0.1061
     22 C           2.5482   -4.9180    0.0736 C.ar    1  UNL1        0.1347
     23 O           1.1962   -5.0954    0.0827 O.3     1  UNL1       -0.5058
     24 C           3.3634   -6.0425    0.0683 C.ar    1  UNL1        0.0225
     25 C           4.7480   -5.9023    0.0604 C.ar    1  UNL1        0.1275
     26 O           5.4213   -7.0889    0.0549 O.3     1  UNL1       -0.4917
     27 C           6.8353   -7.0059    0.0419 C.3     1  UNL1        0.0896
     28 C           7.3774   -8.4279    0.0418 C.3     1  UNL1       -0.0185
     29 C           8.8957   -8.3897    0.0669 C.3     1  UNL1       -0.0452
     30 C           9.5031   -9.7879    0.1167 C.3     1  UNL1       -0.0125
     31 C          11.0270   -9.7548    0.0593 C.3     1  UNL1       -0.0332
     32 N          11.5701   -9.0141    1.2475 N.4     1  UNL1        0.2307
     33 C          13.0687   -8.8261    1.3601 C.3     1  UNL1       -0.0204
     34 C          13.5628   -7.9757    0.1864 C.3     1  UNL1       -0.0193
     35 C          13.3090   -8.0730    2.6770 C.3     1  UNL1       -0.0193
     36 C          13.7472  -10.1940    1.4053 C.3     1  UNL1       -0.0193
     37 C           5.3186   -4.6286    0.0593 C.ar    1  UNL1        0.0233
     38 C           4.4984   -3.4967    0.0655 C.ar    1  UNL1        0.1463
     39 O           5.1559   -2.2911    0.0649 O.2     1  UNL1       -0.4542
     40 H           0.4073   -0.2311   -0.8281 H       1  UNL1        0.0278
     41 H           0.4089   -0.2328    0.9715 H       1  UNL1        0.0278
     42 H           0.5022    1.2744    0.0734 H       1  UNL1        0.0278
     43 H           2.5262    2.2330    0.0670 H       1  UNL1        0.0657
     44 H           3.9446    3.6957   -0.8324 H       1  UNL1        0.0696
     45 H           3.9424    3.6864    0.9665 H       1  UNL1        0.0696
     46 H           6.1932    4.7406    0.9478 H       1  UNL1        0.0298
     47 H           6.1734    4.7753   -0.8101 H       1  UNL1        0.0298
     48 H           4.0558    6.1339   -0.7675 H       1  UNL1        0.0268
     49 H           4.0519    6.0470    0.9926 H       1  UNL1        0.0268
     50 H           6.1877    7.3339    1.0759 H       1  UNL1        0.0317
     51 H           6.2530    7.3508   -0.6854 H       1  UNL1        0.0317
     52 H           5.3918    9.4982    0.1498 H       1  UNL1        0.0814
     53 H           4.1123    8.6481   -0.7729 H       1  UNL1        0.0814
     54 H           3.2316    7.8641    1.3453 H       1  UNL1        0.2019
     55 H           4.4097    8.6471    2.1685 H       1  UNL1        0.2019
     56 H           1.3381    8.9671    0.2452 H       1  UNL1        0.0287
     57 H           1.1896   10.7227    0.3966 H       1  UNL1        0.0287
     58 H           2.4057   10.0382   -0.6762 H       1  UNL1        0.0287
     59 H           2.8264    9.6382    3.6282 H       1  UNL1        0.0287
     60 H           1.4613   10.5454    2.9619 H       1  UNL1        0.0287
     61 H           1.5368    8.7900    2.7628 H       1  UNL1        0.0287
     62 H           4.4756   11.1354    2.3108 H       1  UNL1        0.0287
     63 H           4.2543   11.3664    0.5673 H       1  UNL1        0.0287
     64 H           3.0886   12.0470    1.6970 H       1  UNL1        0.0287
     65 H           6.2252    0.0294    0.0638 H       1  UNL1        0.0691
     66 H           0.9675   -6.0366    0.0563 H       1  UNL1        0.2922
     67 H           2.9346   -7.0412    0.0708 H       1  UNL1        0.0691
     68 H           7.1809   -6.4836   -0.8587 H       1  UNL1        0.0696
     69 H           7.1913   -6.4818    0.9381 H       1  UNL1        0.0696
     70 H           6.9892   -8.9703    0.9131 H       1  UNL1        0.0298
     71 H           7.0127   -8.9662   -0.8413 H       1  UNL1        0.0298
     72 H           9.2654   -7.8579   -0.8184 H       1  UNL1        0.0268
     73 H           9.2032   -7.8109    0.9443 H       1  UNL1        0.0268
     74 H           9.1720  -10.3079    1.0237 H       1  UNL1        0.0317
     75 H           9.1366  -10.3720   -0.7366 H       1  UNL1        0.0317
     76 H          11.4243  -10.7722    0.0871 H       1  UNL1        0.0814
     77 H          11.3638   -9.2423   -0.8453 H       1  UNL1        0.0814
     78 H          11.1539   -8.0757    1.2790 H       1  UNL1        0.2019
     79 H          11.2349   -9.4898    2.0977 H       1  UNL1        0.2019
     80 H          13.0481   -7.0081    0.1508 H       1  UNL1        0.0287
     81 H          14.6361   -7.7762    0.2774 H       1  UNL1        0.0287
     82 H          13.4107   -8.4716   -0.7772 H       1  UNL1        0.0287
     83 H          12.9098   -8.6265    3.5347 H       1  UNL1        0.0287
     84 H          14.3797   -7.9180    2.8496 H       1  UNL1        0.0287
     85 H          12.8296   -7.0866    2.6671 H       1  UNL1        0.0287
     86 H          13.3386  -10.8126    2.2125 H       1  UNL1        0.0287
     87 H          13.6256  -10.7413    0.4650 H       1  UNL1        0.0287
     88 H          14.8235  -10.0879    1.5779 H       1  UNL1        0.0287
     89 H           6.3923   -4.4785    0.0529 H       1  UNL1        0.0691
@<TRIPOS>UNITY_ATOM_ATTR
11 1
charge 1
32 1
charge 1
@<TRIPOS>BOND
     1     1    40    1
     2     1    41    1
     3     1    42    1
     4     2     1    1
     5     3     2   ar
     6     3    43    1
     7     4     3   ar
     8     5     4    1
     9     6     5    1
    10     6    44    1
    11     6    45    1
    12     7     6    1
    13     7    46    1
    14     7    47    1
    15     8     7    1
    16     8    48    1
    17     8    49    1
    18     9     8    1
    19     9    50    1
    20     9    51    1
    21    10     9    1
    22    10    52    1
    23    10    53    1
    24    11    10    1
    25    11    54    1
    26    11    55    1
    27    12    11    1
    28    13    12    1
    29    13    56    1
    30    13    57    1
    31    13    58    1
    32    14    12    1
    33    14    59    1
    34    14    60    1
    35    14    61    1
    36    15    12    1
    37    15    62    1
    38    15    63    1
    39    15    64    1
    40    16     4   ar
    41    16    65    1
    42    17    16   ar
    43    18    17   ar
    44    18     2   ar
    45    19    18   ar
    46    20    19    2
    47    21    19   ar
    48    22    21   ar
    49    23    22    1
    50    23    66    1
    51    24    22   ar
    52    24    67    1
    53    25    24   ar
    54    26    25    1
    55    27    26    1
    56    27    68    1
    57    27    69    1
    58    28    27    1
    59    28    70    1
    60    28    71    1
    61    29    28    1
    62    29    72    1
    63    29    73    1
    64    30    29    1
    65    30    74    1
    66    30    75    1
    67    31    30    1
    68    31    76    1
    69    31    77    1
    70    32    31    1
    71    32    78    1
    72    32    79    1
    73    33    32    1
    74    34    33    1
    75    34    80    1
    76    34    81    1
    77    34    82    1
    78    35    33    1
    79    35    83    1
    80    35    84    1
    81    35    85    1
    82    36    33    1
    83    36    86    1
    84    36    87    1
    85    36    88    1
    86    37    25   ar
    87    37    89    1
    88    38    37   ar
    89    38    21   ar
    90    39    38   ar
    91    39    17   ar
@<TRIPOS>MOLECULE
mol_110_akc_ijms222413613
>108.sdf
 26 27 0 0 0
SMALL
GASTEIGER

@<TRIPOS>ATOM
      1 C           4.4731   -2.0771    0.9185 C.3     1  UNL1        0.0833
      2 O           4.1896   -0.7438    0.4868 O.3     1  UNL1       -0.4534
      3 C           5.0526   -0.2848   -0.4658 C.2     1  UNL1        0.4065
      4 O           5.9380   -0.9700   -0.9510 O.2     1  UNL1       -0.2260
      5 N           4.7297    1.0176   -0.7245 N.am    1  UNL1       -0.2210
      6 C           5.4940    1.8181   -1.5342 C.ar    1  UNL1        0.2053
      7 N           6.5889    1.4753   -2.1710 N.ar    1  UNL1       -0.2140
      8 C           7.0408    2.5984   -2.8045 C.ar    1  UNL1        0.0923
      9 C           6.1904    3.6750   -2.5720 C.ar    1  UNL1        0.0699
     10 C           6.4268    4.9471   -3.1082 C.ar    1  UNL1       -0.0346
     11 C           7.5780    5.1018   -3.8910 C.ar    1  UNL1       -0.0413
     12 C           8.4399    4.0288   -4.1266 C.ar    1  UNL1        0.0431
     13 CL          9.8482    4.2712   -5.0893 Cl      1  UNL1       -0.0835
     14 C           8.1855    2.7645   -3.5946 C.ar    1  UNL1       -0.0158
     15 N           5.2046    3.1497   -1.7643 N.ar    1  UNL1       -0.3146
     16 C           4.0700    3.8743   -1.2455 C.3     1  UNL1        0.0150
     17 H           4.2651   -2.7879    0.1137 H       1  UNL1        0.0661
     18 H           5.5116   -2.1657    1.2571 H       1  UNL1        0.0661
     19 H           3.8197   -2.3058    1.7645 H       1  UNL1        0.0661
     20 H           3.9352    1.3774   -0.2258 H       1  UNL1        0.1610
     21 H           5.7627    5.7855   -2.9290 H       1  UNL1        0.0639
     22 H           7.8011    6.0771   -4.3184 H       1  UNL1        0.0633
     23 H           8.8468    1.9238   -3.7698 H       1  UNL1        0.0654
     24 H           3.1837    3.5683   -1.8069 H       1  UNL1        0.0457
     25 H           3.9524    3.6431   -0.1839 H       1  UNL1        0.0457
     26 H           4.2271    4.9494   -1.3543 H       1  UNL1        0.0457
@<TRIPOS>BOND
     1     1    17    1
     2     1    18    1
     3     1    19    1
     4     2     1    1
     5     3     2    1
     6     4     3    2
     7     5     3   am
     8     5    20    1
     9     6     5    1
    10     7     6   ar
    11     8     7   ar
    12     9     8   ar
    13    10     9   ar
    14    10    21    1
    15    11    10   ar
    16    11    22    1
    17    12    11   ar
    18    13    12    1
    19    14    12   ar
    20    14     8   ar
    21    14    23    1
    22    15     9   ar
    23    15     6   ar
    24    16    15    1
    25    16    24    1
    26    16    25    1
    27    16    26    1
@<TRIPOS>MOLECULE
mol_111_akc_molecules26247473
>109.sdf
 22 24 0 0 0
SMALL
GASTEIGER

@<TRIPOS>ATOM
      1 O           2.4914   -1.1261   -7.1198 O.2     1  UNL1       -0.2456
      2 C           3.4167   -0.5313   -6.6040 C.2     1  UNL1        0.3327
      3 O           4.7379   -0.6723   -6.9108 O.3     1  UNL1       -0.4464
      4 C           5.5070    0.0325   -5.9071 C.3     1  UNL1        0.1755
      5 C           6.7543    0.7959   -6.3995 C.3     1  UNL1       -0.0008
      6 C           7.6599   -0.2877   -5.7930 C.3     1  UNL1       -0.0008
      7 C           6.4530   -0.8703   -5.0281 C.3     1  UNL1        0.1755
      8 O           6.4309   -0.6285   -3.6011 O.3     1  UNL1       -0.4464
      9 C           6.1159   -1.7973   -2.9751 C.2     1  UNL1        0.3327
     10 O           5.9380   -1.9462   -1.7798 O.2     1  UNL1       -0.2456
     11 C           6.0310   -2.8622   -3.9856 C.2     1  UNL1        0.0225
     12 C           6.2549   -2.3247   -5.1851 C.2     1  UNL1       -0.0300
     13 C           4.5245    0.8373   -5.1570 C.2     1  UNL1       -0.0300
     14 C           3.2979    0.4793   -5.5400 C.2     1  UNL1        0.0225
     15 H           6.8418    0.8948   -7.4865 H       1  UNL1        0.0310
     16 H           6.9023    1.7866   -5.9539 H       1  UNL1        0.0310
     17 H           8.4640    0.1023   -5.1597 H       1  UNL1        0.0310
     18 H           8.1063   -0.9553   -6.5389 H       1  UNL1        0.0310
     19 H           5.8204   -3.8883   -3.7407 H       1  UNL1        0.0687
     20 H           6.2535   -2.8568   -6.1259 H       1  UNL1        0.0615
     21 H           4.7618    1.5730   -4.4012 H       1  UNL1        0.0615
     22 H           2.3501    0.8385   -5.1794 H       1  UNL1        0.0687
@<TRIPOS>BOND
     1     3     2    1
     2     4     3    1
     3     5     4    1
     4     6     5    1
     5     7     6    1
     6     7     4    1
     7     8     7    1
     8     9     8    1
     9    11     9    1
    10    12    11    2
    11    12     7    1
    12    13     4    1
    13    14    13    2
    14    14     2    1
    15     2     1    2
    16     5    15    1
    17     5    16    1
    18     6    17    1
    19     6    18    1
    20    10     9    2
    21    11    19    1
    22    12    20    1
    23    13    21    1
    24    14    22    1
@<TRIPOS>MOLECULE
mol_112_akc_jbioorg2021105414
>110.sdf
 50 54 0 0 0
SMALL
GASTEIGER

@<TRIPOS>ATOM
      1 O           1.1322    0.0056    0.2105 O.2     1  UNL1       -0.2754
      2 C           2.3452   -0.0484   -0.0097 C.2     1  UNL1        0.2183
      3 C           2.9621    0.5837   -1.2424 C.3     1  UNL1        0.0247
      4 C           2.0655    1.5826   -1.9667 C.3     1  UNL1       -0.0394
      5 C           2.8086    2.1026   -3.2006 C.3     1  UNL1       -0.0120
      6 C           2.0484    3.1335   -3.9570 C.ar    1  UNL1        0.0170
      7 C           2.3720    4.4401   -4.2604 C.ar    1  UNL1       -0.0334
      8 C           1.3425    4.9675   -5.0880 C.ar    1  UNL1       -0.0001
      9 C           1.1360    6.2048   -5.7229 C.ar    1  UNL1       -0.0526
     10 C          -0.0115    6.3900   -6.5009 C.ar    1  UNL1       -0.0611
     11 C          -0.9477    5.3663   -6.6440 C.ar    1  UNL1       -0.0598
     12 C          -0.7640    4.1292   -6.0182 C.ar    1  UNL1       -0.0378
     13 C           0.3927    3.9595   -5.2513 C.ar    1  UNL1        0.0467
     14 N           0.8379    2.8634   -4.5474 N.ar    1  UNL1       -0.3579
     15 N           3.1385   -0.7066    0.8940 N.am    1  UNL1       -0.2699
     16 C           4.5262   -0.9434    0.8514 C.ar    1  UNL1        0.1333
     17 N           5.1595   -0.6311   -0.2918 N.ar    1  UNL1       -0.2312
     18 C           6.4789   -0.7464   -0.3875 C.ar    1  UNL1        0.0737
     19 C           7.2842   -1.1893    0.6736 C.ar    1  UNL1        0.0082
     20 C           8.6807   -1.2793    0.4325 C.ar    1  UNL1       -0.0520
     21 C           9.2407   -0.9395   -0.8005 C.ar    1  UNL1       -0.0611
     22 C           8.4213   -0.4888   -1.8233 C.ar    1  UNL1       -0.0597
     23 C           7.0517   -0.3972   -1.6038 C.ar    1  UNL1       -0.0357
     24 C           6.6229   -1.5210    1.9045 C.ar    1  UNL1       -0.0054
     25 C           7.3294   -1.9224    3.0680 C.ar    1  UNL1       -0.0533
     26 C           6.6811   -2.2837    4.2487 C.ar    1  UNL1       -0.0611
     27 C           5.2992   -2.2840    4.2983 C.ar    1  UNL1       -0.0611
     28 C           4.5714   -1.8716    3.1824 C.ar    1  UNL1       -0.0507
     29 C           5.2072   -1.4523    1.9816 C.ar    1  UNL1        0.0228
     30 H           3.8571    1.1386   -0.9465 H       1  UNL1        0.0358
     31 H           3.2309   -0.2267   -1.9309 H       1  UNL1        0.0358
     32 H           1.1167    1.1134   -2.2507 H       1  UNL1        0.0273
     33 H           1.8196    2.4128   -1.2933 H       1  UNL1        0.0273
     34 H           3.7732    2.5281   -2.8933 H       1  UNL1        0.0328
     35 H           3.0390    1.2678   -3.8742 H       1  UNL1        0.0328
     36 H           3.2700    4.9568   -3.9478 H       1  UNL1        0.0641
     37 H           1.8624    7.0054   -5.6167 H       1  UNL1        0.0624
     38 H          -0.1730    7.3423   -6.9999 H       1  UNL1        0.0618
     39 H          -1.8325    5.5301   -7.2530 H       1  UNL1        0.0618
     40 H          -1.4923    3.3330   -6.1331 H       1  UNL1        0.0638
     41 H           0.3483    1.9817   -4.4959 H       1  UNL1        0.1656
     42 H           2.6209   -1.0032    1.7056 H       1  UNL1        0.1562
     43 H           9.3583   -1.6353    1.2034 H       1  UNL1        0.0624
     44 H          10.3119   -1.0298   -0.9588 H       1  UNL1        0.0618
     45 H           8.8395   -0.2151   -2.7861 H       1  UNL1        0.0618
     46 H           6.4057   -0.0429   -2.4045 H       1  UNL1        0.0639
     47 H           8.4165   -1.9442    3.0811 H       1  UNL1        0.0624
     48 H           7.2612   -2.5709    5.1220 H       1  UNL1        0.0618
     49 H           4.7845   -2.5940    5.2044 H       1  UNL1        0.0618
     50 H           3.4891   -1.8936    3.2712 H       1  UNL1        0.0625
@<TRIPOS>BOND
     1     2     1    2
     2     3     2    1
     3     3    30    1
     4     3    31    1
     5     4     3    1
     6     4    32    1
     7     4    33    1
     8     5     4    1
     9     5    34    1
    10     5    35    1
    11     6     5    1
    12     7     6   ar
    13     7    36    1
    14     8     7   ar
    15     9     8   ar
    16     9    37    1
    17    10     9   ar
    18    10    38    1
    19    11    10   ar
    20    11    39    1
    21    12    11   ar
    22    12    40    1
    23    13    12   ar
    24    13     8   ar
    25    14    13   ar
    26    14     6   ar
    27    14    41    1
    28    15     2   am
    29    15    42    1
    30    16    15    1
    31    17    16   ar
    32    18    17   ar
    33    19    18   ar
    34    20    19   ar
    35    20    43    1
    36    21    20   ar
    37    21    44    1
    38    22    21   ar
    39    22    45    1
    40    23    22   ar
    41    23    18   ar
    42    23    46    1
    43    24    19   ar
    44    25    24   ar
    45    25    47    1
    46    26    25   ar
    47    26    48    1
    48    27    26   ar
    49    27    49    1
    50    28    27   ar
    51    28    50    1
    52    29    28   ar
    53    29    16   ar
    54    29    24   ar
@<TRIPOS>MOLECULE
mol_113_akc_journalpone0258996
>111.sdf
 44 47 0 0 0
SMALL
GASTEIGER

@<TRIPOS>ATOM
      1 C           4.9775   -2.0728    3.5436 C.3     1  UNL1       -0.0364
      2 C           5.3555   -0.8946    2.6700 C.3     1  UNL1        0.0829
      3 C           5.1585    0.4344    3.3504 C.3     1  UNL1        0.0773
      4 O           4.9326    1.3571    2.2873 O.3     1  UNL1       -0.3407
      5 C           4.5426    0.5767    1.1271 C.3     1  UNL1        0.2185
      6 C           3.1217    1.0148    0.7221 C.3     1  UNL1        0.1018
      7 N           3.0499    2.3808    0.2599 N.ar    1  UNL1       -0.2465
      8 C           3.0881    3.5123    1.0102 C.ar    1  UNL1        0.1145
      9 N           2.9380    4.5616    0.2317 N.ar    1  UNL1       -0.2228
     10 C           2.7968    4.0042   -1.0063 C.ar    1  UNL1        0.1379
     11 N           2.8520    2.6701   -1.0408 N.ar    1  UNL1       -0.1582
     12 O           4.4876   -0.8046    1.5416 O.3     1  UNL1       -0.3379
     13 C           5.5811    0.7508    0.0142 C.ar    1  UNL1        0.0315
     14 C           6.5951    1.7255    0.1585 C.ar    1  UNL1       -0.0486
     15 C           7.5079    1.9919   -0.8633 C.ar    1  UNL1       -0.0188
     16 C           7.4257    1.2982   -2.0622 C.ar    1  UNL1        0.1298
     17 O           8.3292    1.6503   -3.0382 O.3     1  UNL1       -0.4560
     18 C           7.9145    1.6609   -4.3518 C.ar    1  UNL1        0.1285
     19 C           6.6359    2.0531   -4.7663 C.ar    1  UNL1       -0.0180
     20 C           6.2921    1.9880   -6.1177 C.ar    1  UNL1       -0.0399
     21 C           7.2387    1.5762   -7.0543 C.ar    1  UNL1        0.0412
     22 CL          6.8070    1.4729   -8.7163 Cl      1  UNL1       -0.0835
     23 C           8.5330    1.2476   -6.6539 C.ar    1  UNL1       -0.0399
     24 C           8.8719    1.2953   -5.3000 C.ar    1  UNL1       -0.0180
     25 C           6.4906    0.2720   -2.2031 C.ar    1  UNL1       -0.0006
     26 C           5.5645    0.0118   -1.1839 C.ar    1  UNL1        0.0527
     27 CL          4.4210   -1.2459   -1.5008 Cl      1  UNL1       -0.0830
     28 H           5.0152   -3.0050    2.9711 H       1  UNL1        0.0255
     29 H           5.6490   -2.1564    4.4033 H       1  UNL1        0.0255
     30 H           3.9502   -1.9746    3.9125 H       1  UNL1        0.0255
     31 H           6.3819   -1.0059    2.3009 H       1  UNL1        0.0617
     32 H           4.2732    0.4510    3.9941 H       1  UNL1        0.0587
     33 H           6.0277    0.7435    3.9376 H       1  UNL1        0.0587
     34 H           2.6878    0.3726   -0.0509 H       1  UNL1        0.0567
     35 H           2.4482    0.9416    1.5853 H       1  UNL1        0.0567
     36 H           3.2259    3.5217    2.0829 H       1  UNL1        0.1044
     37 H           2.6457    4.5883   -1.9056 H       1  UNL1        0.1065
     38 H           6.6742    2.3171    1.0695 H       1  UNL1        0.0624
     39 H           8.2644    2.7607   -0.7273 H       1  UNL1        0.0654
     40 H           5.8940    2.3939   -4.0478 H       1  UNL1        0.0655
     41 H           5.2852    2.2529   -6.4295 H       1  UNL1        0.0633
     42 H           9.2777    0.9478   -7.3859 H       1  UNL1        0.0633
     43 H           9.8788    1.0353   -4.9834 H       1  UNL1        0.0655
     44 H           6.4599   -0.3143   -3.1183 H       1  UNL1        0.0669
@<TRIPOS>BOND
     1     1    28    1
     2     1    29    1
     3     1    30    1
     4     2     1    1
     5     2    31    1
     6     3     2    1
     7     3    32    1
     8     3    33    1
     9     4     3    1
    10     5     4    1
    11     5     6    1
    12     6    34    1
    13     6    35    1
    14     7     6    1
    15     8     7   ar
    16     8    36    1
    17     9     8   ar
    18    10     9   ar
    19    10    37    1
    20    11    10   ar
    21    11     7   ar
    22    12     5    1
    23    12     2    1
    24    13     5    1
    25    14    13   ar
    26    14    38    1
    27    15    14   ar
    28    15    39    1
    29    16    15   ar
    30    17    16    1
    31    18    17    1
    32    19    18   ar
    33    19    40    1
    34    20    19   ar
    35    20    41    1
    36    21    20   ar
    37    22    21    1
    38    23    21   ar
    39    23    42    1
    40    24    23   ar
    41    24    18   ar
    42    24    43    1
    43    25    16   ar
    44    25    44    1
    45    26    25   ar
    46    26    13   ar
    47    27    26    1
@<TRIPOS>MOLECULE
mol_114_akc_journalpone0259008
>112.sdf
 39 41 0 0 0
SMALL
GASTEIGER

@<TRIPOS>ATOM
      1 N           3.0902   -1.9008    0.8418 N.am    1  UNL1       -0.3120
      2 C           2.4007   -1.3241   -0.1788 C.2     1  UNL1        0.3165
      3 O           1.1860   -1.1915   -0.1583 O.2     1  UNL1       -0.2513
      4 N           3.1895   -0.9124   -1.2249 N.am    1  UNL1       -0.1910
      5 N           4.5446   -1.0490   -1.1797 N.2     1  UNL1       -0.1865
      6 C           5.1954   -0.6530   -2.2255 C.2     1  UNL1        0.0528
      7 C           6.6685   -0.7765   -2.2573 C.ar    1  UNL1       -0.0052
      8 C           7.3357   -1.3318   -1.1606 C.ar    1  UNL1       -0.0496
      9 C           8.7251   -1.4449   -1.1647 C.ar    1  UNL1       -0.0187
     10 C           9.4536   -1.0316   -2.2815 C.ar    1  UNL1        0.1307
     11 O          10.8282   -1.0780   -2.3525 O.3     1  UNL1       -0.4309
     12 C          11.5644   -2.0212   -1.7256 C.ar    1  UNL1        0.3465
     13 N          11.0768   -3.2600   -1.5071 N.ar    1  UNL1        0.0405
     14 O          12.0834   -3.9933   -0.8557 O.2     1  UNL1       -0.0573
     15 N          13.1450   -3.1835   -0.7428 N.ar    1  UNL1        0.2421
     16 O          14.2983   -3.5775   -0.0805 O.3     1  UNL1       -0.2395
     17 C          12.9160   -1.9382   -1.2907 C.ar    1  UNL1        0.3868
     18 C          13.8752   -0.8448   -1.3502 C.ar    1  UNL1        0.0617
     19 C          15.2507   -1.0981   -1.4766 C.ar    1  UNL1       -0.0478
     20 C          16.1692   -0.0467   -1.5317 C.ar    1  UNL1       -0.0610
     21 C          15.7255    1.2704   -1.4810 C.ar    1  UNL1       -0.0617
     22 C          14.3642    1.5393   -1.3728 C.ar    1  UNL1       -0.0610
     23 C          13.4425    0.4899   -1.3045 C.ar    1  UNL1       -0.0478
     24 C           8.7875   -0.4608   -3.3724 C.ar    1  UNL1       -0.0187
     25 C           7.3919   -0.3356   -3.3656 C.ar    1  UNL1       -0.0496
     26 H           2.5984   -2.0702    1.7046 H       1  UNL1        0.1465
     27 H           4.0804   -1.6989    0.8474 H       1  UNL1        0.1465
     28 H           2.7207   -0.4885   -2.0168 H       1  UNL1        0.1788
     29 H           4.6953   -0.2216   -3.1096 H       1  UNL1        0.0851
     30 H           6.7762   -1.6763   -0.2925 H       1  UNL1        0.0625
     31 H           9.2023   -1.8557   -0.2811 H       1  UNL1        0.0654
     32 H          14.0787   -4.4907    0.1789 H       1  UNL1        0.3885
     33 H          15.6504   -2.1057   -1.5565 H       1  UNL1        0.0626
     34 H          17.2342   -0.2530   -1.6248 H       1  UNL1        0.0618
     35 H          16.4415    2.0890   -1.5335 H       1  UNL1        0.0618
     36 H          14.0214    2.5726   -1.3430 H       1  UNL1        0.0618
     37 H          12.3898    0.7532   -1.2133 H       1  UNL1        0.0626
     38 H           9.3499   -0.1092   -4.2347 H       1  UNL1        0.0654
     39 H           6.8884    0.1067   -4.2223 H       1  UNL1        0.0625
@<TRIPOS>UNITY_ATOM_ATTR
15 1
charge 1
@<TRIPOS>BOND
     1     1    26    1
     2     1    27    1
     3     2     1   am
     4     3     2    2
     5     4     2   am
     6     4    28    1
     7     5     4    1
     8     6     5    2
     9     6    29    1
    10     7     6    1
    11     8     7   ar
    12     8    30    1
    13     9     8   ar
    14     9    31    1
    15    10     9   ar
    16    11    10    1
    17    12    11    1
    18    13    12   ar
    19    14    13   ar
    20    15    14   ar
    21    16    15    1
    22    16    32    1
    23    17    15   ar
    24    17    12   ar
    25    18    17    1
    26    19    18   ar
    27    19    33    1
    28    20    19   ar
    29    20    34    1
    30    21    20   ar
    31    21    35    1
    32    22    21   ar
    33    22    36    1
    34    23    22   ar
    35    23    18   ar
    36    23    37    1
    37    24    10   ar
    38    24    38    1
    39    25    24   ar
    40    25     7   ar
    41    25    39    1
@<TRIPOS>MOLECULE
mol_115_akc_jintimp2021108130
>113.sdf
 36 37 0 0 0
SMALL
GASTEIGER

@<TRIPOS>ATOM
      1 C           2.9908    2.1171    3.1274 C.3     1  UNL1       -0.0437
      2 C           2.6503    1.1682    2.0063 C.2     1  UNL1       -0.0755
      3 C           1.7267    0.2128    2.2258 C.2     1  UNL1       -0.0994
      4 C           3.3787    1.2518    0.6476 C.3     1  UNL1       -0.0071
      5 C           4.9110    0.9903    0.8062 C.3     1  UNL1       -0.0169
      6 C           5.6559    2.2501    1.0814 C.ar    1  UNL1       -0.0030
      7 C           5.1069    3.4924    0.8583 C.ar    1  UNL1        0.1091
      8 C           3.7487    3.8230    0.3641 C.3     1  UNL1        0.0151
      9 C           3.0853    2.5394   -0.2478 C.3     1  UNL1       -0.0007
     10 C           1.5681    2.7910   -0.3759 C.3     1  UNL1       -0.0552
     11 C           3.6453    2.3476   -1.6736 C.2     1  UNL1       -0.0842
     12 C           3.3426    1.3547   -2.5253 C.2     1  UNL1       -0.1021
     13 O           5.9597    4.4781    1.2179 O.2     1  UNL1       -0.4672
     14 C           7.0806    3.8547    1.6752 C.ar    1  UNL1        0.0952
     15 C           6.9524    2.4787    1.6118 C.ar    1  UNL1       -0.0093
     16 C           7.9439    1.4586    2.0246 C.3     1  UNL1       -0.0365
     17 H           2.4837    3.0754    2.9905 H       1  UNL1        0.0274
     18 H           2.6772    1.7188    4.0993 H       1  UNL1        0.0274
     19 H           4.0648    2.2882    3.2148 H       1  UNL1        0.0274
     20 H           1.4510   -0.5071    1.4654 H       1  UNL1        0.0534
     21 H           1.2149    0.1283    3.1823 H       1  UNL1        0.0534
     22 H           3.0094    0.3870    0.0750 H       1  UNL1        0.0357
     23 H           5.0964    0.2541    1.5976 H       1  UNL1        0.0320
     24 H           5.3027    0.5564   -0.1229 H       1  UNL1        0.0320
     25 H           3.7998    4.6331   -0.3739 H       1  UNL1        0.0352
     26 H           3.1521    4.2068    1.1979 H       1  UNL1        0.0352
     27 H           1.3642    3.6429   -1.0363 H       1  UNL1        0.0238
     28 H           1.0486    1.9193   -0.7905 H       1  UNL1        0.0238
     29 H           1.1096    3.0168    0.5921 H       1  UNL1        0.0238
     30 H           4.3666    3.0887   -2.0210 H       1  UNL1        0.0572
     31 H           2.6370    0.5697   -2.2731 H       1  UNL1        0.0532
     32 H           3.8043    1.3126   -3.5072 H       1  UNL1        0.0532
     33 H           7.8675    4.5145    2.0136 H       1  UNL1        0.1032
     34 H           7.5063    0.7748    2.7592 H       1  UNL1        0.0279
     35 H           8.2682    0.8720    1.1594 H       1  UNL1        0.0279
     36 H           8.8278    1.9197    2.4759 H       1  UNL1        0.0279
@<TRIPOS>BOND
     1     1    17    1
     2     1    18    1
     3     1    19    1
     4     2     1    1
     5     3     2    2
     6     3    20    1
     7     3    21    1
     8     5     4    1
     9     5    23    1
    10     5    24    1
    11     6     5    1
    12     7     6   ar
    13     8     7    1
    14     8    25    1
    15     8    26    1
    16     9     8    1
    17     9     4    1
    18    10    27    1
    19    10    28    1
    20    10    29    1
    21    11    30    1
    22    12    11    2
    23    12    31    1
    24    12    32    1
    25    13     7   ar
    26    14    13   ar
    27    14    33    1
    28    15    14   ar
    29    15     6   ar
    30    16    15    1
    31    16    34    1
    32    16    35    1
    33    16    36    1
    34     4    22    1
    35     4     2    1
    36     9    11    1
    37     9    10    1
@<TRIPOS>MOLECULE
mol_116_akc_jejmech2021113516
>114.sdf
 47 50 0 0 0
SMALL
GASTEIGER

@<TRIPOS>ATOM
      1 O           0.3866   -0.7528   -2.2952 O.3     1  UNL1       -0.5049
      2 C          -0.1686   -0.4929   -1.0661 C.ar    1  UNL1        0.1378
      3 C           0.1507   -1.3296    0.0252 C.ar    1  UNL1        0.0718
      4 C          -0.3416   -0.9530    1.2766 C.ar    1  UNL1       -0.0371
      5 C          -1.1406    0.1928    1.4157 C.ar    1  UNL1       -0.0598
      6 C          -1.4576    0.9802    0.3065 C.ar    1  UNL1       -0.0582
      7 C          -0.9684    0.6355   -0.9468 C.ar    1  UNL1       -0.0183
      8 N           0.9558   -2.4477   -0.2070 N.pl3   1  UNL1       -0.3241
      9 C           1.7830   -3.0083    0.8839 C.3     1  UNL1        0.0281
     10 C           2.8829   -3.9188    0.2699 C.3     1  UNL1        0.0280
     11 N           2.3013   -4.9461   -0.6444 N.pl3   1  UNL1       -0.3256
     12 C           1.3962   -4.3629   -1.6700 C.3     1  UNL1        0.0280
     13 C           0.2947   -3.5271   -0.9863 C.3     1  UNL1        0.0281
     14 C           2.7595   -6.2580   -0.7118 C.ar    1  UNL1        0.0579
     15 C           3.2346   -6.9070   -1.8039 C.ar    1  UNL1        0.1569
     16 C           3.4334   -6.2506   -3.0465 C.1     1  UNL1        0.1082
     17 N           3.5760   -5.6775   -4.0494 N.1     1  UNL1       -0.1906
     18 C           3.5989   -8.3373   -1.7450 C.ar    1  UNL1        0.3567
     19 O           4.0080   -8.9391   -2.7333 O.2     1  UNL1       -0.2437
     20 O           3.4561   -8.9824   -0.5509 O.2     1  UNL1       -0.4212
     21 C           2.9982   -8.2939    0.5870 C.ar    1  UNL1        0.1409
     22 C           2.6529   -7.0043    0.5270 C.ar    1  UNL1        0.0039
     23 C           2.9667   -9.0999    1.8181 C.ar    1  UNL1        0.0175
     24 C           2.6445  -10.4636    1.7630 C.ar    1  UNL1       -0.0511
     25 C           2.7153  -11.2596    2.9087 C.ar    1  UNL1       -0.0611
     26 C           3.1084  -10.7012    4.1223 C.ar    1  UNL1       -0.0617
     27 C           3.4133   -9.3443    4.1974 C.ar    1  UNL1       -0.0611
     28 C           3.3424   -8.5486    3.0529 C.ar    1  UNL1       -0.0511
     29 H           1.0959   -1.3902   -2.0842 H       1  UNL1        0.2922
     30 H          -0.1289   -1.5427    2.1624 H       1  UNL1        0.0637
     31 H          -1.5176    0.4733    2.3960 H       1  UNL1        0.0618
     32 H          -2.0720    1.8686    0.4205 H       1  UNL1        0.0619
     33 H          -1.1790    1.2463   -1.8187 H       1  UNL1        0.0655
     34 H           2.2668   -2.2115    1.4599 H       1  UNL1        0.0479
     35 H           1.1610   -3.6000    1.5692 H       1  UNL1        0.0479
     36 H           3.5807   -3.2993   -0.3085 H       1  UNL1        0.0479
     37 H           3.4602   -4.3843    1.0770 H       1  UNL1        0.0479
     38 H           1.9799   -3.7253   -2.3459 H       1  UNL1        0.0479
     39 H           0.9193   -5.1503   -2.2634 H       1  UNL1        0.0479
     40 H          -0.2939   -4.1648   -0.3121 H       1  UNL1        0.0479
     41 H          -0.3885   -3.1444   -1.7518 H       1  UNL1        0.0479
     42 H           2.2650   -6.4878    1.3985 H       1  UNL1        0.0673
     43 H           2.3487  -10.9247    0.8224 H       1  UNL1        0.0625
     44 H           2.4804  -12.3191    2.8476 H       1  UNL1        0.0618
     45 H           3.1870  -11.3254    5.0087 H       1  UNL1        0.0618
     46 H           3.7275   -8.9083    5.1420 H       1  UNL1        0.0618
     47 H           3.6177   -7.5001    3.1343 H       1  UNL1        0.0625
@<TRIPOS>BOND
     1     1    29    1
     2     2     1    1
     3     3     2   ar
     4     4     3   ar
     5     4    30    1
     6     5     4   ar
     7     5    31    1
     8     6     5   ar
     9     6    32    1
    10     7     6   ar
    11     7     2   ar
    12     7    33    1
    13     8     3    1
    14     9     8    1
    15     9    34    1
    16     9    35    1
    17    10     9    1
    18    10    36    1
    19    10    37    1
    20    11    10    1
    21    12    11    1
    22    12    38    1
    23    12    39    1
    24    13    12    1
    25    13     8    1
    26    13    40    1
    27    13    41    1
    28    14    11    1
    29    15    14   ar
    30    16    15    1
    31    17    16    3
    32    18    15   ar
    33    19    18    2
    34    20    18   ar
    35    21    20   ar
    36    22    21   ar
    37    22    14   ar
    38    22    42    1
    39    23    21    1
    40    24    23   ar
    41    24    43    1
    42    25    24   ar
    43    25    44    1
    44    26    25   ar
    45    26    45    1
    46    27    26   ar
    47    27    46    1
    48    28    27   ar
    49    28    23   ar
    50    28    47    1
@<TRIPOS>MOLECULE
mol_117_akc_jbiochi202106015
>115.sdf
 36 36 0 0 0
SMALL
GASTEIGER

@<TRIPOS>ATOM
      1 C           2.4239    1.3656   -0.7747 C.3     1  UNL1       -0.0626
      2 C           3.1301    1.7139    0.5354 C.3     1  UNL1       -0.0436
      3 C           2.1516    2.4376    1.4667 C.3     1  UNL1       -0.0626
      4 C           3.7331    0.4512    1.1821 C.3     1  UNL1       -0.0162
      5 C           4.5272    0.7802    2.4414 C.3     1  UNL1        0.0930
      6 O           5.0358   -0.3974    3.0782 O.3     1  UNL1       -0.4616
      7 C           6.3832   -0.5376    3.0202 C.2     1  UNL1        0.3319
      8 O           7.1262   -0.1208    2.1493 O.2     1  UNL1       -0.2456
      9 C           6.8062   -1.0853    4.3263 C.2     1  UNL1        0.0231
     10 C           8.0884   -0.9830    4.7073 C.2     1  UNL1       -0.0477
     11 C           8.5363   -1.2599    6.0782 C.ar    1  UNL1       -0.0211
     12 C           9.7729   -1.8886    6.2923 C.ar    1  UNL1       -0.0509
     13 C          10.2560   -2.0965    7.5905 C.ar    1  UNL1       -0.0160
     14 C           9.5031   -1.6597    8.6731 C.ar    1  UNL1        0.1582
     15 O           9.9252   -1.8201    9.9633 O.3     1  UNL1       -0.5033
     16 C           8.2844   -1.0213    8.4674 C.ar    1  UNL1        0.1588
     17 O           7.5580   -0.5738    9.5340 O.3     1  UNL1       -0.5033
     18 C           7.7978   -0.8143    7.1845 C.ar    1  UNL1       -0.0094
     19 H           2.0316    2.2694   -1.2533 H       1  UNL1        0.0232
     20 H           3.1162    0.8917   -1.4780 H       1  UNL1        0.0232
     21 H           1.5851    0.6823   -0.6056 H       1  UNL1        0.0232
     22 H           3.9476    2.4079    0.2992 H       1  UNL1        0.0297
     23 H           1.3586    1.7637    1.8082 H       1  UNL1        0.0232
     24 H           2.6598    2.8408    2.3473 H       1  UNL1        0.0232
     25 H           1.6816    3.2857    0.9576 H       1  UNL1        0.0232
     26 H           2.9444   -0.2733    1.4213 H       1  UNL1        0.0300
     27 H           4.3937   -0.0549    0.4667 H       1  UNL1        0.0300
     28 H           5.3220    1.5030    2.2234 H       1  UNL1        0.0697
     29 H           3.8760    1.2420    3.1881 H       1  UNL1        0.0697
     30 H           6.0240   -1.4351    4.9896 H       1  UNL1        0.0689
     31 H           8.8464   -0.6151    4.0185 H       1  UNL1        0.0626
     32 H          10.3708   -2.2204    5.4459 H       1  UNL1        0.0625
     33 H          11.2143   -2.5866    7.7282 H       1  UNL1        0.0655
     34 H          10.7866   -2.2716    9.9465 H       1  UNL1        0.2923
     35 H           8.0956   -0.8141   10.3143 H       1  UNL1        0.2923
     36 H           6.8590   -0.2819    7.0617 H       1  UNL1        0.0661
@<TRIPOS>BOND
     1     1    19    1
     2     1    20    1
     3     1    21    1
     4     2     1    1
     5     2    22    1
     6     3     2    1
     7     3    23    1
     8     3    24    1
     9     3    25    1
    10     4     2    1
    11     4    26    1
    12     4    27    1
    13     5     4    1
    14     5    28    1
    15     5    29    1
    16     6     5    1
    17     7     6    1
    18     8     7    2
    19     9     7    1
    20     9    30    1
    21    10     9    2
    22    10    31    1
    23    11    10    1
    24    12    11   ar
    25    12    32    1
    26    13    12   ar
    27    13    33    1
    28    14    13   ar
    29    15    14    1
    30    15    34    1
    31    16    14   ar
    32    17    16    1
    33    17    35    1
    34    18    16   ar
    35    18    11   ar
    36    18    36    1
@<TRIPOS>MOLECULE
mol_118_akc_acsjmedchem1c00725
>116.sdf
 32 34 0 0 0
SMALL
GASTEIGER

@<TRIPOS>ATOM
      1 O           2.5121    1.2401   -0.6201 O.3     1  UNL1       -0.3809
      2 C           2.3122   -0.0198    0.0245 C.3     1  UNL1        0.1252
      3 C           2.8333   -0.0196    1.4222 C.ar    1  UNL1        0.1160
      4 C           2.9999    1.0328    2.2994 C.ar    1  UNL1        0.0573
      5 N           3.5508    0.4758    3.4278 N.ar    1  UNL1       -0.2197
      6 N           3.7370   -0.8503    3.2280 N.ar    1  UNL1       -0.0604
      7 N           3.3000   -1.1616    2.0157 N.ar    1  UNL1       -0.1312
      8 C           3.8881    1.1132    4.6498 C.ar    1  UNL1        0.0671
      9 C           3.6156    2.4741    4.8529 C.ar    1  UNL1       -0.0352
     10 C           3.9344    3.0803    6.0723 C.ar    1  UNL1       -0.0458
     11 C           4.5304    2.3306    7.0860 C.ar    1  UNL1        0.0180
     12 BR          4.9496    3.1532    8.7345 Br      1  UNL1       -0.0503
     13 C           4.8126    0.9809    6.8914 C.ar    1  UNL1       -0.0458
     14 C           4.4907    0.3690    5.6777 C.ar    1  UNL1       -0.0352
     15 C           0.8339   -0.3716    0.1057 C.ar    1  UNL1       -0.0131
     16 C           0.3747   -1.5502   -0.5099 C.ar    1  UNL1       -0.0547
     17 C          -0.9817   -1.8925   -0.4893 C.ar    1  UNL1       -0.0474
     18 C          -1.8956   -1.0579    0.1469 C.ar    1  UNL1        0.0179
     19 BR         -3.7302   -1.5124    0.1661 Br      1  UNL1       -0.0503
     20 C          -1.4668    0.1126    0.7665 C.ar    1  UNL1       -0.0474
     21 C          -0.1110    0.4542    0.7453 C.ar    1  UNL1       -0.0547
     22 H           1.7229    1.7803   -0.4641 H       1  UNL1        0.2108
     23 H           2.8582   -0.7667   -0.5627 H       1  UNL1        0.0711
     24 H           2.7887    2.0838    2.1948 H       1  UNL1        0.0851
     25 H           3.1492    3.0918    4.0926 H       1  UNL1        0.0639
     26 H           3.7131    4.1334    6.2229 H       1  UNL1        0.0629
     27 H           5.2799    0.3930    7.6783 H       1  UNL1        0.0629
     28 H           4.7200   -0.6864    5.5470 H       1  UNL1        0.0639
     29 H           1.0728   -2.2158   -1.0146 H       1  UNL1        0.0622
     30 H          -1.3105   -2.8087   -0.9727 H       1  UNL1        0.0629
     31 H          -2.1777    0.7643    1.2680 H       1  UNL1        0.0629
     32 H           0.1965    1.3720    1.2413 H       1  UNL1        0.0622
@<TRIPOS>BOND
     1     1    22    1
     2     2     1    1
     3     2    23    1
     4     3     2    1
     5     4     3   ar
     6     4    24    1
     7     5     4   ar
     8     6     5   ar
     9     7     6   ar
    10     7     3   ar
    11     8     5    1
    12     9     8   ar
    13     9    25    1
    14    10     9   ar
    15    10    26    1
    16    11    10   ar
    17    12    11    1
    18    13    11   ar
    19    13    27    1
    20    14    13   ar
    21    14     8   ar
    22    14    28    1
    23    15     2    1
    24    16    15   ar
    25    16    29    1
    26    17    16   ar
    27    17    30    1
    28    18    17   ar
    29    19    18    1
    30    20    18   ar
    31    20    31    1
    32    21    20   ar
    33    21    15   ar
    34    21    32    1
@<TRIPOS>MOLECULE
mol_119_akc_acsmedchemlett1c00193
>117.sdf
 18 18 0 0 0
SMALL
GASTEIGER

@<TRIPOS>ATOM
      1 C           1.0060    0.5243   -0.1563 C.3     1  UNL1        0.1458
      2 N           2.4503    0.4231   -0.4157 N.3     1  UNL1       -0.2097
      3 O           2.8082   -0.2066   -1.4669 O.co2   1  UNL1       -0.6249
      4 C           3.3400    0.9489    0.3993 C.2     1  UNL1        0.2196
      5 C           4.7685    0.9387    0.2837 C.ar    1  UNL1        0.1944
      6 C           5.6353    0.4523   -0.6786 C.ar    1  UNL1       -0.0081
      7 C           6.9515    0.7347   -0.2355 C.ar    1  UNL1        0.0088
      8 C           6.7970    1.3753    0.9691 C.ar    1  UNL1        0.2804
      9 O           5.4840    1.5130    1.3006 O.2     1  UNL1       -0.4285
     10 N           7.7527    1.8965    1.8941 N.pl3   1  UNL1        0.0926
     11 O           8.9449    1.7488    1.5921 O.2     1  UNL1       -0.1231
     12 O           7.3275    2.4508    2.9161 O.2     1  UNL1       -0.1231
     13 H           0.5231    0.8858   -1.0681 H       1  UNL1        0.1001
     14 H           0.6390   -0.4736    0.0962 H       1  UNL1        0.1001
     15 H           0.8091    1.2185    0.6633 H       1  UNL1        0.1001
     16 H           2.9187    1.4594    1.2813 H       1  UNL1        0.1424
     17 H           5.3484   -0.0492   -1.5945 H       1  UNL1        0.0658
     18 H           7.8846    0.5000   -0.7289 H       1  UNL1        0.0673
@<TRIPOS>UNITY_ATOM_ATTR
2 1
charge 1
3 1
charge -1
@<TRIPOS>BOND
     1     1    13    1
     2     1    14    1
     3     1    15    1
     4     2     1    1
     5     3     2    1
     6     4     2    2
     7     4    16    1
     8     5     4    1
     9     6     5   ar
    10     6    17    1
    11     7     6   ar
    12     7    18    1
    13     8     7   ar
    14     9     8   ar
    15     9     5   ar
    16    10     8    1
    17    11    10    2
    18    12    10    2
@<TRIPOS>MOLECULE
mol_11_akc_aac375991
>11.sdf
 75 78 0 0 0
SMALL
GASTEIGER

@<TRIPOS>ATOM
      1 C          15.2771   -8.1227    4.0901 C.3     1  UNL1       -0.0653
      2 C          14.8636   -7.3099    5.3046 C.3     1  UNL1       -0.0559
      3 C          14.7184   -5.8353    4.9480 C.3     1  UNL1       -0.0533
      4 C          14.3077   -5.0112    6.1627 C.3     1  UNL1       -0.0530
      5 C          14.1751   -3.5450    5.7767 C.3     1  UNL1       -0.0516
      6 C          13.7864   -2.6967    6.9761 C.3     1  UNL1       -0.0375
      7 C          13.6311   -1.2500    6.5429 C.3     1  UNL1        0.0091
      8 N          13.3992   -0.4444    7.7265 N.pl3   1  UNL1       -0.3438
      9 C          13.2276    0.9331    7.5047 C.ar    1  UNL1        0.0272
     10 C          12.5702    1.4454    6.3841 C.ar    1  UNL1       -0.0391
     11 C          12.1681    2.7639    6.3618 C.ar    1  UNL1       -0.0388
     12 C          12.4360    3.6084    7.4489 C.ar    1  UNL1        0.0314
     13 N          11.7896    4.8233    7.4463 N.pl3   1  UNL1       -0.3135
     14 C          11.0816    5.6732    8.3182 C.ar    1  UNL1        0.0469
     15 C          10.7790    5.5323    9.7073 C.ar    1  UNL1        0.0040
     16 C          11.1103    4.4883   10.5970 C.ar    1  UNL1       -0.0505
     17 C          10.6592    4.4966   11.9156 C.ar    1  UNL1       -0.0400
     18 C           9.7203    5.4482   12.3030 C.ar    1  UNL1        0.0298
     19 C           9.2079    6.2799   11.3132 C.ar    1  UNL1       -0.0329
     20 C           9.9721    6.5777   10.2060 C.ar    1  UNL1       -0.0138
     21 C           9.8742    7.8619    9.5898 C.ar    1  UNL1       -0.0461
     22 C          10.3015    8.0355    8.2692 C.ar    1  UNL1       -0.0138
     23 C          10.5378    6.8168    7.6733 C.ar    1  UNL1        0.0040
     24 C          10.1404    6.7187    6.3815 C.ar    1  UNL1       -0.0505
     25 C          10.9258    7.5617    5.6698 C.ar    1  UNL1       -0.0400
     26 C          10.9716    8.9098    6.0225 C.ar    1  UNL1        0.0298
     27 C          10.5389    9.1680    7.3465 C.ar    1  UNL1       -0.0329
     28 N          11.4663    9.7696    5.0568 N.pl3   1  UNL1       -0.3360
     29 C          11.6561   11.1970    5.1807 C.3     1  UNL1        0.0004
     30 C          11.5027    9.2562    3.6738 C.3     1  UNL1        0.0004
     31 N           9.4228    5.7057   13.6590 N.pl3   1  UNL1       -0.3360
     32 C          10.6667    6.2224   14.2638 C.3     1  UNL1        0.0004
     33 C           8.2736    6.6098   13.8648 C.3     1  UNL1        0.0004
     34 C          13.2027    3.1366    8.4985 C.ar    1  UNL1       -0.0388
     35 C          13.5484    1.7918    8.5550 C.ar    1  UNL1       -0.0391
     36 H          15.3793   -9.1782    4.3576 H       1  UNL1        0.0230
     37 H          14.5303   -8.0419    3.2936 H       1  UNL1        0.0230
     38 H          16.2374   -7.7747    3.6961 H       1  UNL1        0.0230
     39 H          13.9140   -7.6943    5.6942 H       1  UNL1        0.0263
     40 H          15.6132   -7.4299    6.0952 H       1  UNL1        0.0263
     41 H          15.6683   -5.4550    4.5522 H       1  UNL1        0.0265
     42 H          13.9693   -5.7177    4.1551 H       1  UNL1        0.0265
     43 H          13.3528   -5.3766    6.5597 H       1  UNL1        0.0265
     44 H          15.0539   -5.1179    6.9592 H       1  UNL1        0.0265
     45 H          15.1257   -3.1814    5.3668 H       1  UNL1        0.0266
     46 H          13.4214   -3.4359    4.9869 H       1  UNL1        0.0266
     47 H          12.8411   -3.0532    7.4050 H       1  UNL1        0.0280
     48 H          14.5449   -2.7767    7.7640 H       1  UNL1        0.0280
     49 H          14.5422   -0.9027    6.0387 H       1  UNL1        0.0461
     50 H          12.7969   -1.1906    5.8353 H       1  UNL1        0.0461
     51 H          12.5713   -0.7675    8.2324 H       1  UNL1        0.1461
     52 H          12.3125    0.8293    5.5306 H       1  UNL1        0.0637
     53 H          11.5938    3.1261    5.5171 H       1  UNL1        0.0637
     54 H          11.6591    5.1240    6.4890 H       1  UNL1        0.1522
     55 H          11.7508    3.6689   10.3184 H       1  UNL1        0.0625
     56 H          11.0344    3.7658   12.6298 H       1  UNL1        0.0636
     57 H           8.2129    5.8930   10.9876 H       1  UNL1        0.0642
     58 H           9.4386    8.6826   10.1526 H       1  UNL1        0.0630
     59 H           9.0652    6.9973    6.2941 H       1  UNL1        0.0625
     60 H          11.5716    7.1308    4.9215 H       1  UNL1        0.0636
     61 H          10.5000   10.1744    7.7537 H       1  UNL1        0.0642
     62 H          12.6043   11.4615    4.6900 H       1  UNL1        0.0428
     63 H          10.8615   11.7232    4.6415 H       1  UNL1        0.0428
     64 H          11.7065   11.5549    6.2067 H       1  UNL1        0.0428
     65 H          12.2980    8.5064    3.5601 H       1  UNL1        0.0428
     66 H          10.5403    8.7969    3.4017 H       1  UNL1        0.0428
     67 H          11.7035   10.0370    2.9422 H       1  UNL1        0.0428
     68 H          11.1211    7.0041   13.6342 H       1  UNL1        0.0428
     69 H          10.4696    6.6661   15.2424 H       1  UNL1        0.0428
     70 H          11.4001    5.4208   14.4012 H       1  UNL1        0.0428
     71 H           7.5046    6.5304   13.0853 H       1  UNL1        0.0428
     72 H           7.7771    6.3516   14.8026 H       1  UNL1        0.0428
     73 H           8.5936    7.6586   13.9155 H       1  UNL1        0.0428
     74 H          13.5196    3.8064    9.2865 H       1  UNL1        0.0637
     75 H          14.0528    1.4071    9.4371 H       1  UNL1        0.0637
@<TRIPOS>BOND
     1     1    36    1
     2     1    37    1
     3     1    38    1
     4     2     1    1
     5     2    39    1
     6     2    40    1
     7     3     2    1
     8     3    41    1
     9     3    42    1
    10     4     3    1
    11     4    43    1
    12     4    44    1
    13     5     4    1
    14     5    45    1
    15     5    46    1
    16     6     5    1
    17     6    47    1
    18     6    48    1
    19     7     6    1
    20     7    49    1
    21     7    50    1
    22     8     7    1
    23     8    51    1
    24     9     8    1
    25    10     9   ar
    26    10    52    1
    27    11    10   ar
    28    11    53    1
    29    12    11   ar
    30    13    12    1
    31    13    54    1
    32    14    13    1
    33    15    14   ar
    34    16    15   ar
    35    16    55    1
    36    17    16   ar
    37    17    56    1
    38    18    17   ar
    39    19    18   ar
    40    19    57    1
    41    20    19   ar
    42    20    15   ar
    43    21    20   ar
    44    21    58    1
    45    22    21   ar
    46    23    22   ar
    47    23    14   ar
    48    24    23   ar
    49    24    59    1
    50    25    24   ar
    51    25    60    1
    52    26    25   ar
    53    27    26   ar
    54    27    22   ar
    55    27    61    1
    56    28    26    1
    57    29    28    1
    58    29    62    1
    59    29    63    1
    60    29    64    1
    61    30    28    1
    62    30    65    1
    63    30    66    1
    64    30    67    1
    65    31    18    1
    66    32    31    1
    67    32    68    1
    68    32    69    1
    69    32    70    1
    70    33    31    1
    71    33    71    1
    72    33    72    1
    73    33    73    1
    74    34    12   ar
    75    34    74    1
    76    35    34   ar
    77    35     9   ar
    78    35    75    1
@<TRIPOS>MOLECULE
mol_120_akc_jbiopha2021111857
>118.sdf
 63 65 0 0 0
SMALL
GASTEIGER

@<TRIPOS>ATOM
      1 C           0.9056    0.0184   -0.2313 C.3     1  UNL1       -0.0653
      2 C           2.4247   -0.0056   -0.2480 C.3     1  UNL1       -0.0559
      3 C           2.9627   -1.2817    0.3935 C.3     1  UNL1       -0.0533
      4 C           4.4893   -1.3041    0.3758 C.3     1  UNL1       -0.0531
      5 C           5.0229   -2.5820    1.0168 C.3     1  UNL1       -0.0531
      6 C           6.5484   -2.6054    1.0000 C.3     1  UNL1       -0.0531
      7 C           7.0751   -3.8829    1.6430 C.3     1  UNL1       -0.0530
      8 C           8.6003   -3.9106    1.6330 C.3     1  UNL1       -0.0514
      9 C           9.1076   -5.1913    2.2783 C.3     1  UNL1       -0.0333
     10 C          10.6300   -5.2487    2.2815 C.3     1  UNL1        0.0432
     11 N          11.0951   -6.4523    2.9301 N.ar    1  UNL1       -0.2498
     12 C          11.8481   -6.5626    4.0587 C.ar    1  UNL1        0.0671
     13 C          11.9083   -7.9136    4.2598 C.ar    1  UNL1        0.1608
     14 N          12.6350   -8.5268    5.2102 N.pl3   1  UNL1       -0.3249
     15 C          13.0399   -9.9241    5.0667 C.3     1  UNL1        0.0260
     16 C          13.5758  -10.2310    3.6531 C.3     1  UNL1        0.0247
     17 N          14.0838  -11.6013    3.5301 N.pl3   1  UNL1       -0.3418
     18 C          14.4999  -11.9654    2.2171 C.ar    1  UNL1        0.0379
     19 C          15.0821  -11.0202    1.3598 C.ar    1  UNL1       -0.0221
     20 C          15.5651  -11.4236    0.1301 C.ar    1  UNL1        0.0300
     21 N          15.5530  -12.6940   -0.2896 N.ar    1  UNL1       -0.2548
     22 C          15.0348  -13.6220    0.5221 C.ar    1  UNL1        0.0741
     23 C          15.0617  -14.9326    0.0827 C.ar    1  UNL1       -0.0173
     24 C          14.5374  -15.9688    0.8529 C.ar    1  UNL1        0.0430
     25 CL         14.6194  -17.5891    0.2806 Cl      1  UNL1       -0.0835
     26 C          13.9541  -15.7017    2.0814 C.ar    1  UNL1       -0.0426
     27 C          13.9253  -14.3887    2.5480 C.ar    1  UNL1       -0.0494
     28 C          14.4769  -13.3211    1.7943 C.ar    1  UNL1        0.0213
     29 N          11.1997   -8.5615    3.2930 N.ar    1  UNL1       -0.1146
     30 N          10.7299   -7.6544    2.4529 N.ar    1  UNL1       -0.0639
     31 H           0.5362    0.9383   -0.6943 H       1  UNL1        0.0230
     32 H           0.4950   -0.8317   -0.7857 H       1  UNL1        0.0230
     33 H           0.5252   -0.0244    0.7944 H       1  UNL1        0.0230
     34 H           2.7761    0.0677   -1.2837 H       1  UNL1        0.0263
     35 H           2.8063    0.8708    0.2879 H       1  UNL1        0.0263
     36 H           2.6060   -1.3540    1.4282 H       1  UNL1        0.0265
     37 H           2.5760   -2.1567   -0.1432 H       1  UNL1        0.0265
     38 H           4.8485   -1.2331   -0.6581 H       1  UNL1        0.0265
     39 H           4.8784   -0.4316    0.9147 H       1  UNL1        0.0265
     40 H           4.6645   -2.6543    2.0510 H       1  UNL1        0.0265
     41 H           4.6349   -3.4555    0.4786 H       1  UNL1        0.0265
     42 H           6.9090   -2.5370   -0.0335 H       1  UNL1        0.0265
     43 H           6.9386   -1.7335    1.5387 H       1  UNL1        0.0265
     44 H           6.7119   -3.9546    2.6756 H       1  UNL1        0.0265
     45 H           6.6863   -4.7556    1.1037 H       1  UNL1        0.0265
     46 H           8.9671   -3.8457    0.6015 H       1  UNL1        0.0266
     47 H           8.9931   -3.0422    2.1754 H       1  UNL1        0.0266
     48 H           8.7334   -5.2661    3.3073 H       1  UNL1        0.0283
     49 H           8.7001   -6.0551    1.7360 H       1  UNL1        0.0283
     50 H          11.0370   -5.2444    1.2644 H       1  UNL1        0.0509
     51 H          11.0491   -4.3932    2.8228 H       1  UNL1        0.0509
     52 H          12.2948   -5.7195    4.5606 H       1  UNL1        0.0862
     53 H          12.5399   -8.2075    6.1692 H       1  UNL1        0.1476
     54 H          13.8467  -10.1093    5.7870 H       1  UNL1        0.0477
     55 H          12.2162  -10.5953    5.3337 H       1  UNL1        0.0477
     56 H          12.7860  -10.1189    2.9070 H       1  UNL1        0.0476
     57 H          14.3622   -9.4985    3.4417 H       1  UNL1        0.0476
     58 H          13.3861  -12.2577    3.8676 H       1  UNL1        0.1461
     59 H          15.1704   -9.9702    1.6144 H       1  UNL1        0.0651
     60 H          15.9935  -10.7014   -0.5588 H       1  UNL1        0.0830
     61 H          15.5118  -15.1507   -0.8815 H       1  UNL1        0.0653
     62 H          13.5290  -16.5016    2.6809 H       1  UNL1        0.0632
     63 H          13.4566  -14.2121    3.5137 H       1  UNL1        0.0625
@<TRIPOS>BOND
     1     1    31    1
     2     1    32    1
     3     1    33    1
     4     2     1    1
     5     2    34    1
     6     2    35    1
     7     3     2    1
     8     3    36    1
     9     3    37    1
    10     4     3    1
    11     4    38    1
    12     4    39    1
    13     5     4    1
    14     5    40    1
    15     5    41    1
    16     6     5    1
    17     6    42    1
    18     6    43    1
    19     7     6    1
    20     7    44    1
    21     7    45    1
    22     8     7    1
    23     8    46    1
    24     8    47    1
    25     9     8    1
    26     9    48    1
    27     9    49    1
    28    10     9    1
    29    10    50    1
    30    10    51    1
    31    11    10    1
    32    12    11   ar
    33    12    52    1
    34    13    12   ar
    35    14    13    1
    36    14    53    1
    37    15    14    1
    38    15    54    1
    39    15    55    1
    40    16    15    1
    41    16    56    1
    42    16    57    1
    43    17    16    1
    44    17    58    1
    45    18    17    1
    46    19    18   ar
    47    19    59    1
    48    20    19   ar
    49    20    60    1
    50    21    20   ar
    51    22    21   ar
    52    23    22   ar
    53    23    61    1
    54    24    23   ar
    55    25    24    1
    56    26    24   ar
    57    26    62    1
    58    27    26   ar
    59    27    63    1
    60    28    27   ar
    61    28    18   ar
    62    28    22   ar
    63    29    13   ar
    64    30    29   ar
    65    30    11   ar
@<TRIPOS>MOLECULE
mol_121_akc_jbioorg2021105141
>119.sdf
 43 46 0 0 0
SMALL
GASTEIGER

@<TRIPOS>ATOM
      1 C           0.9771   -0.0697    0.6127 C.3     1  UNL1        0.0788
      2 O           2.1969   -0.6413    1.0891 O.3     1  UNL1       -0.4951
      3 C           2.7957   -1.5047    0.2123 C.ar    1  UNL1        0.1201
      4 C           2.1061   -2.3474   -0.6576 C.ar    1  UNL1       -0.0194
      5 C           2.8064   -3.0936   -1.6090 C.ar    1  UNL1       -0.0503
      6 C           4.1979   -2.9540   -1.7347 C.ar    1  UNL1       -0.0090
      7 C           4.8905   -2.2212   -0.7568 C.ar    1  UNL1       -0.0503
      8 C           4.1876   -1.5066    0.2149 C.ar    1  UNL1       -0.0194
      9 C           4.9323   -3.2949   -2.9971 C.ar    1  UNL1        0.0883
     10 C           5.2872   -2.2160   -3.7474 C.ar    1  UNL1        0.0568
     11 N           6.2940   -2.2118   -4.7113 N.pl3   1  UNL1       -0.3133
     12 C           7.1863   -1.1344   -4.9344 C.ar    1  UNL1        0.0315
     13 C           7.1612    0.0600   -4.2003 C.ar    1  UNL1       -0.0378
     14 C           8.0246    1.1117   -4.5082 C.ar    1  UNL1       -0.0247
     15 C           8.9245    0.9803   -5.5560 C.ar    1  UNL1        0.1235
     16 F           9.7522    1.9878   -5.8485 F       1  UNL1       -0.2055
     17 C           8.9721   -0.1905   -6.3047 C.ar    1  UNL1       -0.0247
     18 C           8.1021   -1.2391   -5.9979 C.ar    1  UNL1       -0.0378
     19 C           4.0163   -1.5881   -4.2225 C.ar    1  UNL1        0.0393
     20 C           3.0891   -2.4816   -4.7862 C.ar    1  UNL1        0.1409
     21 O           3.4185   -3.8597   -4.8398 O.2     1  UNL1       -0.4216
     22 C           4.3723   -4.3339   -3.9213 C.ar    1  UNL1        0.3469
     23 O           4.7134   -5.5090   -3.8655 O.2     1  UNL1       -0.2444
     24 C           1.7882   -2.1017   -5.0926 C.ar    1  UNL1       -0.0186
     25 C           1.3832   -0.8077   -4.7674 C.ar    1  UNL1       -0.0582
     26 C           2.2802    0.0869   -4.1696 C.ar    1  UNL1       -0.0609
     27 C           3.6002   -0.2959   -3.9062 C.ar    1  UNL1       -0.0493
     28 H           1.0492    0.2415   -0.4365 H       1  UNL1        0.0660
     29 H           0.1481   -0.7672    0.7562 H       1  UNL1        0.0660
     30 H           0.7707    0.8256    1.2075 H       1  UNL1        0.0660
     31 H           1.0223   -2.4034   -0.6505 H       1  UNL1        0.0654
     32 H           2.2287   -3.6804   -2.3194 H       1  UNL1        0.0625
     33 H           5.9731   -2.1281   -0.7999 H       1  UNL1        0.0625
     34 H           4.7285   -0.8861    0.9264 H       1  UNL1        0.0654
     35 H           6.8069   -3.0929   -4.7603 H       1  UNL1        0.1522
     36 H           6.4842    0.1807   -3.3601 H       1  UNL1        0.0637
     37 H           8.0004    2.0335   -3.9353 H       1  UNL1        0.0647
     38 H           9.6800   -0.2741   -7.1224 H       1  UNL1        0.0647
     39 H           8.1331   -2.1403   -6.6051 H       1  UNL1        0.0637
     40 H           1.0819   -2.8182   -5.4994 H       1  UNL1        0.0654
     41 H           0.3522   -0.5043   -4.9358 H       1  UNL1        0.0619
     42 H           1.9384    1.0743   -3.8692 H       1  UNL1        0.0618
     43 H           4.2541    0.3895   -3.3781 H       1  UNL1        0.0625
@<TRIPOS>BOND
     1     1    28    1
     2     1    29    1
     3     1    30    1
     4     2     1    1
     5     3     2    1
     6     4     3   ar
     7     4    31    1
     8     5     4   ar
     9     5    32    1
    10     6     5   ar
    11     7     6   ar
    12     7    33    1
    13     8     7   ar
    14     8     3   ar
    15     8    34    1
    16     9     6    1
    17    10     9   ar
    18    11    10    1
    19    11    35    1
    20    12    11    1
    21    13    12   ar
    22    13    36    1
    23    14    13   ar
    24    14    37    1
    25    15    14   ar
    26    16    15    1
    27    17    15   ar
    28    17    38    1
    29    18    17   ar
    30    18    12   ar
    31    18    39    1
    32    19    10   ar
    33    20    19   ar
    34    21    20   ar
    35    22    21   ar
    36    22     9   ar
    37    23    22    2
    38    24    20   ar
    39    24    40    1
    40    25    24   ar
    41    25    41    1
    42    26    25   ar
    43    26    42    1
    44    27    26   ar
    45    27    19   ar
    46    27    43    1
@<TRIPOS>MOLECULE
mol_122_akc_cbdv202100381
>120.sdf
 58 60 0 0 0
SMALL
GASTEIGER

@<TRIPOS>ATOM
      1 C          -7.1836    7.3046   -3.6631 C.3     1  UNL1        0.0790
      2 O          -7.9469    8.1149   -2.7735 O.3     1  UNL1       -0.4914
      3 C          -7.2740    8.6530   -1.7084 C.ar    1  UNL1        0.1618
      4 C          -5.9140    8.4962   -1.4320 C.ar    1  UNL1       -0.0092
      5 C          -5.3408    9.0888   -0.2957 C.ar    1  UNL1       -0.0212
      6 C          -3.9095    8.9611    0.0151 C.2     1  UNL1       -0.0508
      7 C          -3.1505    7.8934   -0.2851 C.2     1  UNL1       -0.0137
      8 C          -1.7105    7.8983    0.1171 C.2     1  UNL1        0.1898
      9 O          -1.1861    8.9721    0.3991 O.2     1  UNL1       -0.2872
     10 C          -0.9464    6.5924    0.1455 C.2     1  UNL1        0.0688
     11 C          -1.6637    5.4594    0.3322 C.2     1  UNL1       -0.0400
     12 C          -1.2270    4.0583    0.4256 C.ar    1  UNL1       -0.0214
     13 C          -1.1491    3.2501   -0.7138 C.ar    1  UNL1       -0.0164
     14 C          -0.8853    1.8879   -0.5765 C.ar    1  UNL1        0.1590
     15 F          -0.8498    1.1122   -1.6700 F       1  UNL1       -0.2025
     16 C          -0.6984    1.3273    0.6818 C.ar    1  UNL1        0.1584
     17 F          -0.4826    0.0108    0.8116 F       1  UNL1       -0.2025
     18 C          -0.7573    2.1238    1.8200 C.ar    1  UNL1       -0.0230
     19 C          -1.0216    3.4904    1.6931 C.ar    1  UNL1       -0.0517
     20 C           0.5612    6.5364    0.0006 C.2     1  UNL1        0.1898
     21 O           1.1508    5.4901   -0.2624 O.2     1  UNL1       -0.2872
     22 C           1.3359    7.8054    0.1282 C.2     1  UNL1       -0.0137
     23 C           2.5277    7.9513   -0.4728 C.2     1  UNL1       -0.0508
     24 C           3.2275    9.2461   -0.5734 C.ar    1  UNL1       -0.0212
     25 C           2.5187   10.4378   -0.8312 C.ar    1  UNL1       -0.0092
     26 C           3.1969   11.6337   -1.0774 C.ar    1  UNL1        0.1618
     27 O           2.6257   12.8460   -1.3697 O.3     1  UNL1       -0.4914
     28 C           1.2033   12.8890   -1.4139 C.3     1  UNL1        0.0790
     29 C           4.5948   11.6291   -1.0585 C.ar    1  UNL1        0.1585
     30 O           5.2892   12.7766   -1.3303 O.3     1  UNL1       -0.5033
     31 C           5.3137   10.4718   -0.7906 C.ar    1  UNL1       -0.0160
     32 C           4.6282    9.2771   -0.5548 C.ar    1  UNL1       -0.0509
     33 C          -6.1442    9.8759    0.5446 C.ar    1  UNL1       -0.0509
     34 C          -7.5028   10.0420    0.2743 C.ar    1  UNL1       -0.0160
     35 C          -8.0528    9.4287   -0.8417 C.ar    1  UNL1        0.1585
     36 O          -9.3868    9.6040   -1.0858 O.3     1  UNL1       -0.5033
     37 H          -6.4017    7.8918   -4.1545 H       1  UNL1        0.0660
     38 H          -6.7613    6.4381   -3.1444 H       1  UNL1        0.0660
     39 H          -7.8595    6.9315   -4.4404 H       1  UNL1        0.0660
     40 H          -5.2820    7.9274   -2.1026 H       1  UNL1        0.0661
     41 H          -3.4745    9.8063    0.5498 H       1  UNL1        0.0625
     42 H          -3.5492    7.0309   -0.8010 H       1  UNL1        0.0656
     43 H          -2.7396    5.5055    0.4910 H       1  UNL1        0.0632
     44 H          -1.3081    3.6543   -1.7080 H       1  UNL1        0.0653
     45 H          -0.6152    1.6746    2.7979 H       1  UNL1        0.0647
     46 H          -1.0882    4.1023    2.5910 H       1  UNL1        0.0624
     47 H           0.9055    8.6300    0.6763 H       1  UNL1        0.0656
     48 H           2.9972    7.1154   -0.9869 H       1  UNL1        0.0625
     49 H           1.4346   10.4047   -0.8696 H       1  UNL1        0.0661
     50 H           0.8119   12.2325   -2.1980 H       1  UNL1        0.0660
     51 H           0.7711   12.6444   -0.4382 H       1  UNL1        0.0660
     52 H           0.9085   13.9133   -1.6619 H       1  UNL1        0.0660
     53 H           4.6033   13.4453   -1.5234 H       1  UNL1        0.2923
     54 H           6.3992   10.4960   -0.7876 H       1  UNL1        0.0655
     55 H           5.2000    8.3703   -0.3701 H       1  UNL1        0.0625
     56 H          -5.7232   10.3622    1.4221 H       1  UNL1        0.0625
     57 H          -8.1265   10.6451    0.9267 H       1  UNL1        0.0655
     58 H          -9.5630    9.1056   -1.9073 H       1  UNL1        0.2923
@<TRIPOS>BOND
     1     1    37    1
     2     1    38    1
     3     1    39    1
     4     2     1    1
     5     3     2    1
     6     4     3   ar
     7     4    40    1
     8     5     4   ar
     9     6     5    1
    10     6    41    1
    11     7     6    2
    12     7    42    1
    13     8     7    1
    14     9     8    2
    15    10     8    1
    16    11    10    2
    17    11    43    1
    18    12    11    1
    19    13    12   ar
    20    13    44    1
    21    14    13   ar
    22    15    14    1
    23    16    14   ar
    24    17    16    1
    25    18    16   ar
    26    18    45    1
    27    19    18   ar
    28    19    12   ar
    29    19    46    1
    30    20    10    1
    31    21    20    2
    32    22    20    1
    33    22    47    1
    34    23    22    2
    35    23    48    1
    36    24    23    1
    37    25    24   ar
    38    25    49    1
    39    26    25   ar
    40    27    26    1
    41    28    27    1
    42    28    50    1
    43    28    51    1
    44    28    52    1
    45    29    26   ar
    46    30    29    1
    47    30    53    1
    48    31    29   ar
    49    31    54    1
    50    32    31   ar
    51    32    24   ar
    52    32    55    1
    53    33     5   ar
    54    33    56    1
    55    34    33   ar
    56    34    57    1
    57    35    34   ar
    58    35     3   ar
    59    36    35    1
    60    36    58    1
@<TRIPOS>MOLECULE
mol_124_akc_acsjmedchem1c00813
>122.sdf
 37 39 0 0 0
SMALL
GASTEIGER

@<TRIPOS>ATOM
      1 C           1.0418   -0.0533    0.0631 C.3     1  UNL1        0.0004
      2 N           2.4560    0.0731   -0.2573 N.pl3   1  UNL1       -0.3360
      3 C           3.1937   -1.1650   -0.4912 C.3     1  UNL1        0.0004
      4 C           3.1737    1.2212    0.0600 C.ar    1  UNL1        0.0313
      5 C           4.3254    1.5566   -0.6616 C.ar    1  UNL1       -0.0400
      6 C           5.0193    2.7432   -0.4154 C.ar    1  UNL1       -0.0508
      7 C           4.5814    3.6233    0.5796 C.ar    1  UNL1        0.0012
      8 C           5.2438    4.8271    0.8452 C.ar    1  UNL1       -0.0416
      9 C           4.7966    5.7084    1.8465 C.ar    1  UNL1        0.0223
     10 C           3.6593    5.2810    2.5556 C.ar    1  UNL1        0.1246
     11 N           3.1001    6.0195    3.6010 N.pl3   1  UNL1       -0.3426
     12 N           3.0089    4.1226    2.3221 N.ar    1  UNL1       -0.2318
     13 C           3.4529    3.3063    1.3431 C.ar    1  UNL1        0.0749
     14 C           2.7736    2.1197    1.0643 C.ar    1  UNL1       -0.0146
     15 C           5.5200    6.9895    2.0878 C.ar    1  UNL1       -0.0118
     16 C           6.0916    7.7154    1.0227 C.ar    1  UNL1       -0.0355
     17 C           6.7889    8.9079    1.2445 C.ar    1  UNL1        0.0429
     18 CL          7.5100    9.7305   -0.0850 Cl      1  UNL1       -0.0835
     19 C           6.9087    9.4327    2.5233 C.ar    1  UNL1       -0.0250
     20 C           6.3444    8.7396    3.5864 C.ar    1  UNL1        0.0429
     21 CL          6.4583    9.3844    5.1781 Cl      1  UNL1       -0.0835
     22 C           5.6808    7.5267    3.3776 C.ar    1  UNL1       -0.0355
     23 H           0.5329   -0.5662   -0.7612 H       1  UNL1        0.0428
     24 H           0.8936   -0.6388    0.9760 H       1  UNL1        0.0428
     25 H           0.5408    0.9143    0.1730 H       1  UNL1        0.0428
     26 H           3.7351   -1.1288   -1.4417 H       1  UNL1        0.0428
     27 H           3.9034   -1.3626    0.3201 H       1  UNL1        0.0428
     28 H           2.5144   -2.0233   -0.5466 H       1  UNL1        0.0428
     29 H           4.6742    0.9176   -1.4668 H       1  UNL1        0.0636
     30 H           5.8896    2.9781   -1.0230 H       1  UNL1        0.0625
     31 H           6.1274    5.0706    0.2615 H       1  UNL1        0.0631
     32 H           2.2722    5.5106    3.9049 H       1  UNL1        0.1437
     33 H           2.8821    6.9664    3.3165 H       1  UNL1        0.1437
     34 H           1.9066    1.8949    1.6813 H       1  UNL1        0.0657
     35 H           5.9968    7.3583   -0.0007 H       1  UNL1        0.0638
     36 H           7.4366   10.3667    2.6913 H       1  UNL1        0.0647
     37 H           5.2901    6.9965    4.2454 H       1  UNL1        0.0638
@<TRIPOS>BOND
     1     1    23    1
     2     1    24    1
     3     1    25    1
     4     2     1    1
     5     3     2    1
     6     3    26    1
     7     3    27    1
     8     3    28    1
     9     4     2    1
    10     5     4   ar
    11     5    29    1
    12     6     5   ar
    13     6    30    1
    14     7     6   ar
    15     8     7   ar
    16     8    31    1
    17     9     8   ar
    18    10     9   ar
    19    11    10    1
    20    11    32    1
    21    11    33    1
    22    12    10   ar
    23    13    12   ar
    24    13     7   ar
    25    14    13   ar
    26    14     4   ar
    27    14    34    1
    28    15     9    1
    29    16    15   ar
    30    16    35    1
    31    17    16   ar
    32    18    17    1
    33    19    17   ar
    34    19    36    1
    35    20    19   ar
    36    21    20    1
    37    22    20   ar
    38    22    15   ar
    39    22    37    1
@<TRIPOS>MOLECULE
mol_125_akc_fmb_2020_0320
>123.sdf
 58 61 0 0 0
SMALL
GASTEIGER

@<TRIPOS>ATOM
      1 C           0.9797   -0.7544    2.6439 C.3     1  UNL1       -0.0394
      2 C           2.4684   -0.5497    2.3258 C.3     1  UNL1        0.0872
      3 N           2.8760    0.8588    2.5737 N.ar    1  UNL1       -0.2345
      4 N           3.9399    1.1040    3.4196 N.ar    1  UNL1       -0.1586
      5 C           4.0916    2.3886    3.3935 C.ar    1  UNL1        0.1230
      6 N           3.2403    3.0633    2.5886 N.ar    1  UNL1       -0.2777
      7 C           2.3784    2.0861    2.0800 C.ar    1  UNL1        0.1829
      8 S           0.9686    2.2694    1.1945 S.2     1  UNL1       -0.0109
      9 C           3.2516    4.4604    2.3515 C.ar    1  UNL1        0.0501
     10 C           2.7342    4.9833    1.1616 C.ar    1  UNL1       -0.0343
     11 C           2.6186    6.3538    0.9436 C.ar    1  UNL1       -0.0180
     12 C           3.0746    7.2505    1.8970 C.ar    1  UNL1        0.1209
     13 O           2.9866    8.6095    1.7969 O.3     1  UNL1       -0.4858
     14 C           2.2343    9.1108    0.6821 C.3     1  UNL1        0.1582
     15 C           2.1979   10.6299    0.7127 C.3     1  UNL1        0.3406
     16 F           1.5498   11.0681   -0.4018 F       1  UNL1       -0.1957
     17 F           1.4490   11.0383    1.7738 F       1  UNL1       -0.1957
     18 C           3.5994   11.2116    0.7929 C.3     1  UNL1        0.3045
     19 F           4.3493   10.8006   -0.2655 F       1  UNL1       -0.2026
     20 F           3.5639   12.5694    0.7321 F       1  UNL1       -0.2026
     21 C           3.6854    6.7552    3.0505 C.ar    1  UNL1       -0.0180
     22 C           3.7797    5.3713    3.2774 C.ar    1  UNL1       -0.0343
     23 C           2.9309   -1.0829    0.9024 C.3     1  UNL1        0.1349
     24 O           2.3545   -0.2808   -0.1527 O.3     1  UNL1       -0.3799
     25 C           2.4160   -2.5301    0.6521 C.3     1  UNL1        0.0782
     26 N           2.7725   -3.0546   -0.6558 N.ar    1  UNL1       -0.2489
     27 C           2.0228   -3.0292   -1.7922 C.ar    1  UNL1        0.1144
     28 N           2.7034   -3.5620   -2.7805 N.ar    1  UNL1       -0.2228
     29 C           3.8769   -3.9215   -2.1813 C.ar    1  UNL1        0.1379
     30 N           3.9444   -3.6825   -0.8687 N.ar    1  UNL1       -0.1583
     31 C           4.4634   -1.0218    0.7958 C.ar    1  UNL1        0.0230
     32 C           5.1181   -0.2223   -0.1563 C.ar    1  UNL1       -0.0503
     33 C           6.5128   -0.2113   -0.2485 C.ar    1  UNL1       -0.0259
     34 C           7.2710   -1.0025    0.6176 C.ar    1  UNL1        0.1261
     35 F           8.6033   -0.9911    0.5227 F       1  UNL1       -0.2054
     36 C           6.6553   -1.7965    1.5688 C.ar    1  UNL1        0.0092
     37 C           5.2687   -1.8002    1.6490 C.ar    1  UNL1        0.1321
     38 F           4.6933   -2.5880    2.5714 F       1  UNL1       -0.2050
     39 H           0.7501   -1.8136    2.7890 H       1  UNL1        0.0251
     40 H           0.7101   -0.2321    3.5694 H       1  UNL1        0.0251
     41 H           0.3187   -0.3960    1.8519 H       1  UNL1        0.0251
     42 H           2.9913   -1.1314    3.0946 H       1  UNL1        0.0576
     43 H           4.8640    2.9288    3.9557 H       1  UNL1        0.1051
     44 H           2.4239    4.3417    0.3452 H       1  UNL1        0.0639
     45 H           2.1636    6.6671    0.0094 H       1  UNL1        0.0655
     46 H           2.6986    8.7925   -0.2600 H       1  UNL1        0.0759
     47 H           1.2050    8.7321    0.7221 H       1  UNL1        0.0759
     48 H           4.1141   10.9320    1.7161 H       1  UNL1        0.1082
     49 H           4.0702    7.4489    3.7951 H       1  UNL1        0.0655
     50 H           4.2253    5.0452    4.2133 H       1  UNL1        0.0639
     51 H           1.5870    0.2142    0.1853 H       1  UNL1        0.2108
     52 H           2.7741   -3.2457    1.3995 H       1  UNL1        0.0542
     53 H           1.3198   -2.5527    0.6770 H       1  UNL1        0.0542
     54 H           1.0271   -2.6123   -1.8462 H       1  UNL1        0.1044
     55 H           4.7016   -4.3741   -2.7166 H       1  UNL1        0.1065
     56 H           4.5455    0.3892   -0.8548 H       1  UNL1        0.0623
     57 H           7.0159    0.3939   -0.9918 H       1  UNL1        0.0646
     58 H           7.2463   -2.4158    2.2345 H       1  UNL1        0.0675
@<TRIPOS>BOND
     1     1    39    1
     2     1    40    1
     3     1    41    1
     4     3     2    1
     5     4     3   ar
     6     5     4   ar
     7     5    43    1
     8     6     5   ar
     9     7     6   ar
    10     7     3   ar
    11     8     7    2
    12     9     6    1
    13    10     9   ar
    14    10    44    1
    15    11    10   ar
    16    11    45    1
    17    12    11   ar
    18    13    12    1
    19    14    13    1
    20    14    46    1
    21    14    47    1
    22    15    14    1
    23    16    15    1
    24    17    15    1
    25    18    15    1
    26    18    48    1
    27    19    18    1
    28    20    18    1
    29    21    12   ar
    30    21    49    1
    31    22    21   ar
    32    22     9   ar
    33    22    50    1
    34    24    51    1
    35    25    23    1
    36    25    52    1
    37    25    53    1
    38    26    25    1
    39    27    26   ar
    40    27    54    1
    41    28    27   ar
    42    29    28   ar
    43    29    55    1
    44    30    29   ar
    45    30    26   ar
    46    31    23    1
    47    32    31   ar
    48    32    56    1
    49    33    32   ar
    50    33    57    1
    51    34    33   ar
    52    35    34    1
    53    36    34   ar
    54    36    58    1
    55    37    36   ar
    56    37    31   ar
    57    38    37    1
    58     2    42    1
    59     2     1    1
    60    23    24    1
    61    23     2    1
@<TRIPOS>MOLECULE
mol_126_akc_jijpddr202102006
>124.sdf
 46 47 0 0 0
SMALL
GASTEIGER

@<TRIPOS>ATOM
      1 C           2.4679    0.4952   -3.0323 C.3     1  UNL1        0.0788
      2 O           3.7216   -0.0749   -3.3906 O.3     1  UNL1       -0.4951
      3 C           4.1189   -1.1945   -2.7128 C.ar    1  UNL1        0.1202
      4 C           3.4088   -1.8351   -1.6957 C.ar    1  UNL1       -0.0181
      5 C           3.9364   -2.9770   -1.0771 C.ar    1  UNL1       -0.0316
      6 C           5.1758   -3.4828   -1.4848 C.ar    1  UNL1        0.1087
      7 C           5.8955   -2.8461   -2.4980 C.ar    1  UNL1       -0.0316
      8 C           5.3612   -1.7052   -3.1067 C.ar    1  UNL1       -0.0181
      9 S           5.8400   -4.9273   -0.6701 S.O2    1  UNL1        0.0725
     10 O           7.1208   -5.2279   -1.2666 O.2     1  UNL1       -0.1500
     11 O           5.6795   -4.7297    0.7551 O.2     1  UNL1       -0.1500
     12 N           4.6983   -6.1138   -1.1260 N.pl3   1  UNL1       -0.2126
     13 C           5.1942   -7.4705   -1.1710 C.ar    1  UNL1        0.0931
     14 C           5.3558   -8.1615    0.0424 C.ar    1  UNL1        0.0078
     15 C           5.7297   -9.5168    0.0635 C.ar    1  UNL1        0.1432
     16 O           5.6309  -10.2753    1.2003 O.3     1  UNL1       -0.4932
     17 C           5.9359   -9.6287    2.4290 C.3     1  UNL1        0.0789
     18 C           6.0197  -10.1775   -1.1398 C.ar    1  UNL1        0.0792
     19 N           6.4876  -11.5105   -1.2613 N.am    1  UNL1       -0.2815
     20 C           7.2315  -12.2376   -0.3397 C.2     1  UNL1        0.2319
     21 O           7.6202  -11.8570    0.7580 O.2     1  UNL1       -0.2742
     22 C           7.5563  -13.6542   -0.7964 C.3     1  UNL1        0.0992
     23 CL          7.9582  -13.7024   -2.5303 Cl      1  UNL1       -0.1156
     24 C           5.8100   -9.4912   -2.3456 C.ar    1  UNL1        0.0067
     25 C           5.4042   -8.1474   -2.3779 C.ar    1  UNL1        0.1443
     26 O           5.1542   -7.7055   -3.6522 O.3     1  UNL1       -0.4932
     27 C           5.3739   -6.3319   -3.9308 C.3     1  UNL1        0.0789
     28 H           1.6485   -0.2098   -3.2059 H       1  UNL1        0.0660
     29 H           2.4755    0.8462   -1.9955 H       1  UNL1        0.0660
     30 H           2.2995    1.3639   -3.6763 H       1  UNL1        0.0660
     31 H           2.4453   -1.4679   -1.3563 H       1  UNL1        0.0655
     32 H           3.3783   -3.4548   -0.2761 H       1  UNL1        0.0638
     33 H           6.8664   -3.2172   -2.8172 H       1  UNL1        0.0638
     34 H           5.9201   -1.2024   -3.8934 H       1  UNL1        0.0655
     35 H           3.9405   -6.0548   -0.4419 H       1  UNL1        0.1738
     36 H           5.1198   -7.6526    0.9726 H       1  UNL1        0.0675
     37 H           6.7833   -8.9415    2.3379 H       1  UNL1        0.0660
     38 H           5.0502   -9.1106    2.8097 H       1  UNL1        0.0660
     39 H           6.2070  -10.4023    3.1543 H       1  UNL1        0.0660
     40 H           6.5176  -11.8853   -2.2051 H       1  UNL1        0.1549
     41 H           8.4287  -14.0201   -0.2475 H       1  UNL1        0.0525
     42 H           6.7032  -14.3116   -0.6114 H       1  UNL1        0.0525
     43 H           5.9677   -9.9967   -3.2965 H       1  UNL1        0.0674
     44 H           4.5582   -5.7139   -3.5493 H       1  UNL1        0.0660
     45 H           6.3512   -6.0006   -3.5728 H       1  UNL1        0.0660
     46 H           5.3725   -6.2125   -5.0184 H       1  UNL1        0.0660
@<TRIPOS>BOND
     1     1    28    1
     2     1    29    1
     3     1    30    1
     4     2     1    1
     5     3     2    1
     6     4     3   ar
     7     4    31    1
     8     5     4   ar
     9     5    32    1
    10     6     5   ar
    11     7     6   ar
    12     7    33    1
    13     8     7   ar
    14     8     3   ar
    15     8    34    1
    16     9     6    1
    17    10     9    2
    18    11     9    2
    19    12     9    1
    20    12    35    1
    21    13    12    1
    22    14    13   ar
    23    14    36    1
    24    15    14   ar
    25    16    15    1
    26    17    16    1
    27    17    37    1
    28    17    38    1
    29    17    39    1
    30    18    15   ar
    31    19    18    1
    32    19    40    1
    33    20    19   am
    34    21    20    2
    35    22    20    1
    36    22    41    1
    37    22    42    1
    38    23    22    1
    39    24    18   ar
    40    24    43    1
    41    25    24   ar
    42    25    13   ar
    43    26    25    1
    44    27    26    1
    45    27    44    1
    46    27    45    1
    47    27    46    1
@<TRIPOS>MOLECULE
mol_127_akc_jijpddr202102006
>125.sdf
 50 52 0 0 0
SMALL
GASTEIGER

@<TRIPOS>ATOM
      1 C           2.1862   -1.0702   10.3891 C.3     1  UNL1        0.0788
      2 O           2.0891   -2.4153    9.9371 O.3     1  UNL1       -0.4951
      3 C           2.4414   -2.6789    8.6428 C.ar    1  UNL1        0.1202
      4 C           2.8851   -1.7519    7.6977 C.ar    1  UNL1       -0.0181
      5 C           3.2073   -2.1679    6.3941 C.ar    1  UNL1       -0.0316
      6 C           3.0911   -3.5186    6.0396 C.ar    1  UNL1        0.1087
      7 C           2.6243   -4.4455    6.9750 C.ar    1  UNL1       -0.0316
      8 C           2.3143   -4.0220    8.2731 C.ar    1  UNL1       -0.0181
      9 S           3.3983   -4.0470    4.3564 S.O2    1  UNL1        0.0725
     10 O           2.6125   -5.2374    4.1150 O.2     1  UNL1       -0.1500
     11 O           3.2669   -2.8761    3.5140 O.2     1  UNL1       -0.1500
     12 N           5.0404   -4.4640    4.3049 N.pl3   1  UNL1       -0.2126
     13 C           5.5364   -5.4120    5.2469 C.ar    1  UNL1        0.0937
     14 C           6.0429   -4.9125    6.4542 C.ar    1  UNL1       -0.0183
     15 C           6.4336   -5.7841    7.4698 C.ar    1  UNL1        0.0538
     16 C           6.3131   -7.1599    7.2843 C.ar    1  UNL1       -0.0407
     17 C           5.8304   -7.6611    6.0734 C.ar    1  UNL1       -0.0139
     18 C           5.4697   -6.7987    5.0275 C.ar    1  UNL1        0.1791
     19 O           5.0888   -7.2715    3.7835 O.3     1  UNL1       -0.3404
     20 S           5.7436   -8.6714    3.2293 S.O2    1  UNL1        0.1510
     21 O           7.1885   -8.5165    3.2202 O.2     1  UNL1       -0.1314
     22 O           5.1251   -9.7856    3.9255 O.2     1  UNL1       -0.1314
     23 C           5.2580   -8.8699    1.5333 C.ar    1  UNL1        0.1283
     24 C           6.0621   -9.6708    0.7090 C.ar    1  UNL1       -0.0299
     25 C           5.6837   -9.9179   -0.6131 C.ar    1  UNL1       -0.0180
     26 C           4.5072   -9.3613   -1.1146 C.ar    1  UNL1        0.1202
     27 O           4.0245   -9.5242   -2.3842 O.3     1  UNL1       -0.4951
     28 C           4.8189  -10.2875   -3.2858 C.3     1  UNL1        0.0788
     29 C           3.7131   -8.5621   -0.2790 C.ar    1  UNL1       -0.0180
     30 C           4.0817   -8.3082    1.0473 C.ar    1  UNL1       -0.0299
     31 C           6.9465   -5.2688    8.7029 C.1     1  UNL1        0.0992
     32 N           7.3669   -4.8418    9.6944 N.1     1  UNL1       -0.1909
     33 H           3.2114   -0.6954   10.3077 H       1  UNL1        0.0660
     34 H           1.4834   -0.4231    9.8543 H       1  UNL1        0.0660
     35 H           1.9118   -1.0540   11.4493 H       1  UNL1        0.0660
     36 H           2.9729   -0.6965    7.9399 H       1  UNL1        0.0655
     37 H           3.5225   -1.4244    5.6646 H       1  UNL1        0.0638
     38 H           2.4855   -5.4884    6.7076 H       1  UNL1        0.0638
     39 H           1.9500   -4.7436    9.0011 H       1  UNL1        0.0655
     40 H           5.6268   -3.6618    4.0765 H       1  UNL1        0.1738
     41 H           6.1151   -3.8388    6.6165 H       1  UNL1        0.0650
     42 H           6.6004   -7.8578    8.0701 H       1  UNL1        0.0631
     43 H           5.7569   -8.7417    5.9821 H       1  UNL1        0.0656
     44 H           6.9737  -10.1241    1.0958 H       1  UNL1        0.0639
     45 H           6.3209  -10.5561   -1.2174 H       1  UNL1        0.0655
     46 H           5.8210   -9.8596   -3.3971 H       1  UNL1        0.0660
     47 H           4.8700  -11.3357   -2.9726 H       1  UNL1        0.0660
     48 H           4.3365  -10.2553   -4.2676 H       1  UNL1        0.0660
     49 H           2.7877   -8.1420   -0.6686 H       1  UNL1        0.0655
     50 H           3.4362   -7.7047    1.6805 H       1  UNL1        0.0639
@<TRIPOS>BOND
     1     1    33    1
     2     1    34    1
     3     1    35    1
     4     2     1    1
     5     3     2    1
     6     4     3   ar
     7     4    36    1
     8     5     4   ar
     9     5    37    1
    10     6     5   ar
    11     7     6   ar
    12     7    38    1
    13     8     7   ar
    14     8     3   ar
    15     8    39    1
    16     9     6    1
    17    10     9    2
    18    11     9    2
    19    12     9    1
    20    12    40    1
    21    13    12    1
    22    14    13   ar
    23    14    41    1
    24    15    14   ar
    25    16    15   ar
    26    16    42    1
    27    17    16   ar
    28    17    43    1
    29    18    17   ar
    30    18    13   ar
    31    19    18    1
    32    20    19    1
    33    21    20    2
    34    22    20    2
    35    23    20    1
    36    24    23   ar
    37    24    44    1
    38    25    24   ar
    39    25    45    1
    40    26    25   ar
    41    27    26    1
    42    28    27    1
    43    28    46    1
    44    28    47    1
    45    28    48    1
    46    29    26   ar
    47    29    49    1
    48    30    29   ar
    49    30    23   ar
    50    30    50    1
    51    31    15    1
    52    32    31    3
@<TRIPOS>MOLECULE
mol_128_akc_jparint2021102342
>126.sdf
 40 43 0 0 0
SMALL
GASTEIGER

@<TRIPOS>ATOM
      1 CL         -2.3526   -0.0460   -0.6946 Cl      1  UNL1       -0.0835
      2 C          -0.6569   -0.0059   -0.4296 C.ar    1  UNL1        0.0410
      3 C           0.0971   -1.1629   -0.5926 C.ar    1  UNL1       -0.0426
      4 C           1.4821   -1.1255   -0.3981 C.ar    1  UNL1       -0.0463
      5 C           2.1366    0.0823   -0.0889 C.ar    1  UNL1        0.0567
      6 C           1.3529    1.2309    0.1049 C.ar    1  UNL1       -0.0463
      7 C          -0.0371    1.1850   -0.0610 C.ar    1  UNL1       -0.0426
      8 C           3.5999    0.1379   -0.0042 C.ar    1  UNL1        0.2894
      9 N           4.5137   -0.4347   -0.7852 N.ar    1  UNL1       -0.0345
     10 N           5.8215   -0.4425   -0.3229 N.ar    1  UNL1        0.0330
     11 C           5.9257    0.3090    0.7545 C.ar    1  UNL1        0.2354
     12 N           7.0534    0.6424    1.4155 N.pl3   1  UNL1       -0.2890
     13 C           8.2530   -0.0971    1.4746 C.ar    1  UNL1        0.0329
     14 C           9.4502    0.5856    1.7418 C.ar    1  UNL1       -0.0405
     15 C          10.6691   -0.0948    1.7982 C.ar    1  UNL1       -0.0600
     16 C          10.7088   -1.4698    1.5886 C.ar    1  UNL1       -0.0616
     17 C           9.5334   -2.1601    1.3069 C.ar    1  UNL1       -0.0600
     18 C           8.3165   -1.4751    1.2336 C.ar    1  UNL1       -0.0405
     19 S           4.4050    0.9458    1.2823 S.2     1  UNL1        0.0236
     20 C           4.2350   -1.0700   -2.0800 C.ar    1  UNL1        0.2413
     21 C           3.2595   -0.5564   -2.9381 C.ar    1  UNL1        0.0126
     22 C           2.9350   -1.2573   -4.0986 C.ar    1  UNL1       -0.0555
     23 C           3.6029   -2.4445   -4.4016 C.ar    1  UNL1       -0.0613
     24 C           4.6197   -2.9167   -3.5683 C.ar    1  UNL1       -0.0555
     25 C           4.9523   -2.2209   -2.4037 C.ar    1  UNL1        0.0126
     26 H          -0.3868   -2.0964   -0.8762 H       1  UNL1        0.0632
     27 H           2.0287   -2.0595   -0.5185 H       1  UNL1        0.0626
     28 H           1.7976    2.1891    0.3742 H       1  UNL1        0.0626
     29 H          -0.6316    2.0850    0.0883 H       1  UNL1        0.0632
     30 H           7.0205    1.3787    2.1160 H       1  UNL1        0.1542
     31 H           9.4514    1.6619    1.9004 H       1  UNL1        0.0636
     32 H          11.5881    0.4485    2.0065 H       1  UNL1        0.0618
     33 H          11.6551   -2.0028    1.6450 H       1  UNL1        0.0618
     34 H           9.5635   -3.2357    1.1536 H       1  UNL1        0.0618
     35 H           7.4201   -2.0532    1.0352 H       1  UNL1        0.0636
     36 H           2.7420    0.3798   -2.7422 H       1  UNL1        0.0684
     37 H           2.1598   -0.8867   -4.7680 H       1  UNL1        0.0620
     38 H           3.3355   -3.0002   -5.3005 H       1  UNL1        0.0618
     39 H           5.1418   -3.8369   -3.8267 H       1  UNL1        0.0620
     40 H           5.7320   -2.6104   -1.7560 H       1  UNL1        0.0684
@<TRIPOS>UNITY_ATOM_ATTR
9 1
charge 1
@<TRIPOS>BOND
     1     2     1    1
     2     3     2   ar
     3     3    26    1
     4     4     3   ar
     5     4    27    1
     6     5     4   ar
     7     6     5   ar
     8     6    28    1
     9     7     6   ar
    10     7     2   ar
    11     7    29    1
    12     8     5    1
    13     9     8   ar
    14    10     9   ar
    15    11    10   ar
    16    12    11    1
    17    12    30    1
    18    13    12    1
    19    14    13   ar
    20    14    31    1
    21    15    14   ar
    22    15    32    1
    23    16    15   ar
    24    16    33    1
    25    17    16   ar
    26    17    34    1
    27    18    17   ar
    28    18    13   ar
    29    18    35    1
    30    19    11   ar
    31    19     8   ar
    32    20     9    1
    33    21    20   ar
    34    21    36    1
    35    22    21   ar
    36    22    37    1
    37    23    22   ar
    38    23    38    1
    39    24    23   ar
    40    24    39    1
    41    25    24   ar
    42    25    20   ar
    43    25    40    1
@<TRIPOS>MOLECULE
mol_129_akc_acsinfecdis0c00855
>127.sdf
 70 72 0 0 0
SMALL
GASTEIGER

@<TRIPOS>ATOM
      1 C           1.2443    1.8742   -1.9191 C.3     1  UNL1       -0.0281
      2 C           2.2977    1.7071   -0.8293 C.3     1  UNL1        0.0948
      3 C           1.6386    1.7325    0.5506 C.3     1  UNL1       -0.0281
      4 O           2.8990    0.4107   -1.0021 O.3     1  UNL1       -0.4852
      5 C           4.2143    0.3538   -1.3965 C.ar    1  UNL1        0.1686
      6 C           4.9571   -0.7699   -0.9719 C.ar    1  UNL1        0.1607
      7 N           4.4286   -1.9014   -0.2961 N.pl3   1  UNL1       -0.2021
      8 C           3.2402   -2.5547   -0.4018 C.cat   1  UNL1        0.2566
      9 N           2.3901   -2.1404   -1.2139 N.2     1  UNL1       -0.4083
     10 C           2.8668   -3.7626    0.4126 C.ar    1  UNL1        0.1463
     11 C           3.7501   -4.4446    1.2327 C.ar    1  UNL1       -0.0286
     12 C           3.2334   -5.4932    1.9812 C.ar    1  UNL1       -0.0581
     13 C           1.8787   -5.8115    1.8824 C.ar    1  UNL1       -0.0435
     14 C           1.0872   -5.0869    1.0045 C.ar    1  UNL1        0.0285
     15 N           1.5486   -4.0669    0.2480 N.ar    1  UNL1       -0.2477
     16 C           6.3118   -0.8466   -1.3242 C.ar    1  UNL1       -0.0099
     17 C           6.9046    0.1246   -2.1261 C.ar    1  UNL1       -0.0159
     18 C           6.1480    1.1871   -2.6166 C.ar    1  UNL1        0.1242
     19 O           6.6101    2.1445   -3.4863 O.3     1  UNL1       -0.4918
     20 C           7.8923    1.8638   -4.0570 C.3     1  UNL1        0.0896
     21 C           8.2229    2.8527   -5.1696 C.3     1  UNL1       -0.0186
     22 C           9.6344    2.6327   -5.7276 C.3     1  UNL1       -0.0500
     23 C           9.8286    1.2525   -6.3675 C.3     1  UNL1       -0.0530
     24 C          11.2626    1.0631   -6.8610 C.3     1  UNL1       -0.0530
     25 C          11.4702   -0.3427   -7.4379 C.3     1  UNL1       -0.0514
     26 C          12.8925   -0.5752   -7.9490 C.3     1  UNL1       -0.0349
     27 C          13.9443   -0.5023   -6.8422 C.3     1  UNL1        0.0241
     28 N          15.2841   -0.7166   -7.3428 N.ar    1  UNL1       -0.3368
     29 C          16.1393    0.2477   -7.7894 C.ar    1  UNL1        0.0240
     30 C          17.2948   -0.4227   -8.1100 C.ar    1  UNL1        0.0454
     31 N          17.1578   -1.7664   -7.8647 N.ar    1  UNL1       -0.2441
     32 C          15.9374   -1.9119   -7.4025 C.ar    1  UNL1        0.0959
     33 C           4.8095    1.3097   -2.2319 C.ar    1  UNL1        0.0258
     34 H           0.4876    2.6166   -1.6489 H       1  UNL1        0.0265
     35 H           1.7151    2.1937   -2.8539 H       1  UNL1        0.0265
     36 H           0.7437    0.9214   -2.1301 H       1  UNL1        0.0265
     37 H           3.0232    2.5280   -0.8539 H       1  UNL1        0.0727
     38 H           0.8048    1.0236    0.6064 H       1  UNL1        0.0265
     39 H           2.3549    1.4461    1.3280 H       1  UNL1        0.0265
     40 H           1.2570    2.7318    0.7808 H       1  UNL1        0.0265
     41 H           5.1402   -2.3183    0.2986 H       1  UNL1        0.2984
     42 H           1.8388   -2.9142   -1.5591 H       1  UNL1        0.2551
     43 H           4.8009   -4.1944    1.3053 H       1  UNL1        0.0641
     44 H           3.8768   -6.0587    2.6543 H       1  UNL1        0.0619
     45 H           1.4550   -6.6123    2.4782 H       1  UNL1        0.0633
     46 H           0.0293   -5.3138    0.9000 H       1  UNL1        0.0830
     47 H           6.9248   -1.6908   -1.0122 H       1  UNL1        0.0660
     48 H           7.9551    0.0002   -2.3714 H       1  UNL1        0.0655
     49 H           8.6593    1.9371   -3.2764 H       1  UNL1        0.0696
     50 H           7.8776    0.8538   -4.4808 H       1  UNL1        0.0696
     51 H           7.4792    2.7727   -5.9714 H       1  UNL1        0.0298
     52 H           8.1400    3.8753   -4.7820 H       1  UNL1        0.0298
     53 H           9.8458    3.4096   -6.4718 H       1  UNL1        0.0266
     54 H          10.3636    2.7655   -4.9180 H       1  UNL1        0.0266
     55 H           9.6148    0.4625   -5.6413 H       1  UNL1        0.0265
     56 H           9.1257    1.1295   -7.2005 H       1  UNL1        0.0265
     57 H          11.5002    1.8145   -7.6204 H       1  UNL1        0.0265
     58 H          11.9407    1.2237   -6.0158 H       1  UNL1        0.0265
     59 H          11.2278   -1.0969   -6.6792 H       1  UNL1        0.0266
     60 H          10.7714   -0.4954   -8.2693 H       1  UNL1        0.0266
     61 H          12.9351   -1.5654   -8.4226 H       1  UNL1        0.0282
     62 H          13.1235    0.1516   -8.7373 H       1  UNL1        0.0282
     63 H          13.9485    0.4762   -6.3536 H       1  UNL1        0.0492
     64 H          13.7511   -1.2576   -6.0708 H       1  UNL1        0.0492
     65 H          15.8710    1.2966   -7.8452 H       1  UNL1        0.0825
     66 H          18.2178   -0.0134   -8.4991 H       1  UNL1        0.0845
     67 H          15.4882   -2.8490   -7.0999 H       1  UNL1        0.1029
     68 H           4.2454    2.1487   -2.6299 H       1  UNL1        0.0692
     69 H           2.7580   -1.4694   -1.8615 H       1  UNL1        0.2551
     70 H           1.7146   -1.6380   -0.6483 H       1  UNL1        0.2551
@<TRIPOS>UNITY_ATOM_ATTR
8 1
charge 1
@<TRIPOS>BOND
     1     1    34    1
     2     1    35    1
     3     1    36    1
     4     2     1    1
     5     2    37    1
     6     3     2    1
     7     3    38    1
     8     3    39    1
     9     3    40    1
    10     4     2    1
    11     5     4    1
    12     6     5   ar
    13     7     6    1
    14     7    41    1
    15     8     7    1
    16     9     8    2
    17     9    42    1
    18     9    69    1
    19    10     8    1
    20    11    10   ar
    21    11    43    1
    22    12    11   ar
    23    12    44    1
    24    13    12   ar
    25    13    45    1
    26    14    13   ar
    27    14    46    1
    28    15    14   ar
    29    15    10   ar
    30    16     6   ar
    31    16    47    1
    32    17    16   ar
    33    17    48    1
    34    18    17   ar
    35    19    18    1
    36    20    19    1
    37    20    49    1
    38    20    50    1
    39    21    20    1
    40    21    51    1
    41    21    52    1
    42    22    21    1
    43    22    53    1
    44    22    54    1
    45    23    22    1
    46    23    55    1
    47    23    56    1
    48    24    23    1
    49    24    57    1
    50    24    58    1
    51    25    24    1
    52    25    59    1
    53    25    60    1
    54    26    25    1
    55    26    61    1
    56    26    62    1
    57    27    26    1
    58    27    63    1
    59    27    64    1
    60    28    27    1
    61    29    28   ar
    62    29    65    1
    63    30    29   ar
    64    30    66    1
    65    31    30   ar
    66    32    31   ar
    67    32    28   ar
    68    32    67    1
    69    33    18   ar
    70    33     5   ar
    71    33    68    1
    72     9    70    1
@<TRIPOS>MOLECULE
mol_12_akc_aac375991
>12.sdf
 78 81 0 0 0
SMALL
GASTEIGER

@<TRIPOS>ATOM
      1 C          19.9640   -2.2058    4.6138 C.3     1  UNL1       -0.0653
      2 C          18.6634   -1.7122    4.0012 C.3     1  UNL1       -0.0559
      3 C          17.6334   -1.3915    5.0809 C.3     1  UNL1       -0.0533
      4 C          16.3169   -0.8995    4.4782 C.3     1  UNL1       -0.0530
      5 C          15.3062   -0.5988    5.5840 C.3     1  UNL1       -0.0516
      6 C          13.9718   -0.1015    5.0212 C.3     1  UNL1       -0.0372
      7 C          12.9308    0.1035    6.1279 C.3     1  UNL1        0.0119
      8 N          13.3585    1.1513    7.0607 N.pl3   1  UNL1       -0.3329
      9 C          13.4527    0.7679    8.4722 C.3     1  UNL1        0.0007
     10 C          13.1010    2.5022    6.8028 C.ar    1  UNL1        0.0295
     11 C          12.4094    2.9389    5.6630 C.ar    1  UNL1       -0.0389
     12 C          12.0645    4.2830    5.4863 C.ar    1  UNL1       -0.0388
     13 C          12.4633    5.2433    6.4142 C.ar    1  UNL1        0.0314
     14 N          12.2127    6.6041    6.1902 N.pl3   1  UNL1       -0.3135
     15 C          11.1407    7.4611    6.6227 C.ar    1  UNL1        0.0469
     16 C          10.7094    7.6218    7.9786 C.ar    1  UNL1        0.0040
     17 C          11.0884    6.8772    9.1184 C.ar    1  UNL1       -0.0505
     18 C          10.7091    7.2608   10.4284 C.ar    1  UNL1       -0.0400
     19 C           9.8249    8.3236   10.6378 C.ar    1  UNL1        0.0298
     20 C           9.3063    8.9343    9.5029 C.ar    1  UNL1       -0.0329
     21 C           9.8497    8.7148    8.2425 C.ar    1  UNL1       -0.0138
     22 C           9.6206    9.7115    7.2960 C.ar    1  UNL1       -0.0461
     23 C          10.0973    9.6073    6.0021 C.ar    1  UNL1       -0.0138
     24 C          10.6855    8.3854    5.6227 C.ar    1  UNL1        0.0040
     25 C          10.8222    8.1617    4.2473 C.ar    1  UNL1       -0.0505
     26 C          10.6903    9.1778    3.3223 C.ar    1  UNL1       -0.0400
     27 C          10.3836   10.4759    3.7413 C.ar    1  UNL1        0.0298
     28 C          10.0202   10.6642    5.0750 C.ar    1  UNL1       -0.0329
     29 N          10.3653   11.5571    2.8306 N.pl3   1  UNL1       -0.3360
     30 C          11.6074   11.6282    2.0431 C.3     1  UNL1        0.0004
     31 C           9.1525   11.4686    2.0138 C.3     1  UNL1        0.0004
     32 N           9.5863    8.8388   11.9380 N.pl3   1  UNL1       -0.3360
     33 C          10.8475    9.3818   12.4776 C.3     1  UNL1        0.0004
     34 C           8.4818    9.8061   12.0468 C.3     1  UNL1        0.0004
     35 C          13.2603    4.8486    7.4758 C.ar    1  UNL1       -0.0388
     36 C          13.5503    3.5031    7.6741 C.ar    1  UNL1       -0.0389
     37 H          20.6918   -2.4337    3.8305 H       1  UNL1        0.0230
     38 H          20.3993   -1.4464    5.2731 H       1  UNL1        0.0230
     39 H          19.7998   -3.1146    5.2021 H       1  UNL1        0.0230
     40 H          18.8635   -0.8188    3.3986 H       1  UNL1        0.0263
     41 H          18.2691   -2.4799    3.3254 H       1  UNL1        0.0263
     42 H          17.4461   -2.2871    5.6863 H       1  UNL1        0.0265
     43 H          18.0358   -0.6260    5.7559 H       1  UNL1        0.0265
     44 H          16.4959    0.0032    3.8818 H       1  UNL1        0.0265
     45 H          15.9109   -1.6617    3.8023 H       1  UNL1        0.0265
     46 H          15.1362   -1.5038    6.1785 H       1  UNL1        0.0266
     47 H          15.7287    0.1563    6.2577 H       1  UNL1        0.0266
     48 H          14.1347    0.8276    4.4634 H       1  UNL1        0.0280
     49 H          13.5815   -0.8373    4.3076 H       1  UNL1        0.0280
     50 H          11.9444    0.3181    5.7009 H       1  UNL1        0.0463
     51 H          12.7972   -0.8504    6.6536 H       1  UNL1        0.0463
     52 H          14.3628    1.1688    8.9310 H       1  UNL1        0.0428
     53 H          12.5770    1.1199    9.0297 H       1  UNL1        0.0428
     54 H          13.5082   -0.3180    8.5948 H       1  UNL1        0.0428
     55 H          12.1059    2.2483    4.8828 H       1  UNL1        0.0637
     56 H          11.5074    4.5667    4.5956 H       1  UNL1        0.0637
     57 H          12.4061    6.7696    5.2071 H       1  UNL1        0.1522
     58 H          11.7494    6.0302    9.0418 H       1  UNL1        0.0625
     59 H          11.1239    6.7221   11.2762 H       1  UNL1        0.0636
     60 H           8.5381    9.6971    9.5974 H       1  UNL1        0.0642
     61 H           9.1031   10.6290    7.5941 H       1  UNL1        0.0630
     62 H          11.0189    7.1609    3.8673 H       1  UNL1        0.0625
     63 H          10.8214    8.9503    2.2753 H       1  UNL1        0.0636
     64 H           9.7206   11.6587    5.4063 H       1  UNL1        0.0642
     65 H          11.7126   10.7866    1.3499 H       1  UNL1        0.0428
     66 H          11.6130   12.5455    1.4436 H       1  UNL1        0.0428
     67 H          12.4883   11.6601    2.6940 H       1  UNL1        0.0428
     68 H           9.0601   10.4964    1.5146 H       1  UNL1        0.0428
     69 H           8.2633   11.6299    2.6337 H       1  UNL1        0.0428
     70 H           9.1621   12.2396    1.2365 H       1  UNL1        0.0428
     71 H          11.3593   10.0149   11.7423 H       1  UNL1        0.0428
     72 H          10.6538   10.0048   13.3588 H       1  UNL1        0.0428
     73 H          11.5233    8.5787   12.7925 H       1  UNL1        0.0428
     74 H           7.5586    9.4219   11.5974 H       1  UNL1        0.0428
     75 H           8.2605   10.0065   13.1012 H       1  UNL1        0.0428
     76 H           8.7426   10.7629   11.5782 H       1  UNL1        0.0428
     77 H          13.6825    5.5969    8.1433 H       1  UNL1        0.0637
     78 H          14.1802    3.2633    8.5289 H       1  UNL1        0.0637
@<TRIPOS>BOND
     1     1    37    1
     2     1    38    1
     3     1    39    1
     4     2     1    1
     5     2    40    1
     6     2    41    1
     7     3     2    1
     8     3    42    1
     9     3    43    1
    10     4     3    1
    11     4    44    1
    12     4    45    1
    13     5     4    1
    14     5    46    1
    15     5    47    1
    16     6     5    1
    17     6    48    1
    18     6    49    1
    19     7     6    1
    20     7    50    1
    21     7    51    1
    22     8     7    1
    23     9     8    1
    24     9    52    1
    25     9    53    1
    26     9    54    1
    27    10     8    1
    28    11    10   ar
    29    11    55    1
    30    12    11   ar
    31    12    56    1
    32    13    12   ar
    33    14    13    1
    34    14    57    1
    35    15    14    1
    36    16    15   ar
    37    17    16   ar
    38    17    58    1
    39    18    17   ar
    40    18    59    1
    41    19    18   ar
    42    20    19   ar
    43    20    60    1
    44    21    20   ar
    45    21    16   ar
    46    22    21   ar
    47    22    61    1
    48    23    22   ar
    49    24    23   ar
    50    24    15   ar
    51    25    24   ar
    52    25    62    1
    53    26    25   ar
    54    26    63    1
    55    27    26   ar
    56    28    27   ar
    57    28    23   ar
    58    28    64    1
    59    29    27    1
    60    30    29    1
    61    30    65    1
    62    30    66    1
    63    30    67    1
    64    31    29    1
    65    31    68    1
    66    31    69    1
    67    31    70    1
    68    32    19    1
    69    33    32    1
    70    33    71    1
    71    33    72    1
    72    33    73    1
    73    34    32    1
    74    34    74    1
    75    34    75    1
    76    34    76    1
    77    35    13   ar
    78    35    77    1
    79    36    35   ar
    80    36    10   ar
    81    36    78    1
@<TRIPOS>MOLECULE
mol_130_akc_aac01513_20
>128.sdf
 55 58 0 0 0
SMALL
GASTEIGER

@<TRIPOS>ATOM
      1 C          -1.6015    1.1794   -2.0487 C.3     1  UNL1       -0.0471
      2 C          -0.3506    0.6044   -1.3974 C.3     1  UNL1        0.0205
      3 N           0.8633    1.0909   -2.0742 N.ar    1  UNL1       -0.3468
      4 C           1.5230    0.3018   -2.9903 C.ar    1  UNL1        0.0071
      5 C           2.5262    0.6923   -3.7811 C.ar    1  UNL1       -0.0195
      6 C           2.8991    2.1390   -3.8119 C.ar    1  UNL1        0.0750
      7 N           3.6295    2.7370   -4.7217 N.2     1  UNL1       -0.2472
      8 C           4.1523    2.0239   -5.8076 C.ar    1  UNL1        0.0646
      9 C           3.3624    1.1958   -6.6009 C.ar    1  UNL1       -0.0360
     10 C           3.9449    0.2724   -7.4642 C.ar    1  UNL1       -0.0566
     11 C           5.3304    0.2556   -7.6542 C.ar    1  UNL1       -0.0469
     12 C           6.0217   -0.8327   -8.4424 C.3     1  UNL1       -0.0237
     13 C           5.1096   -1.6504   -9.3637 C.3     1  UNL1       -0.0237
     14 C           5.8795   -2.7325  -10.0699 C.ar    1  UNL1       -0.0468
     15 C           5.9593   -4.0102   -9.5109 C.ar    1  UNL1       -0.0551
     16 C           6.7039   -5.0029  -10.1506 C.ar    1  UNL1       -0.0194
     17 C           7.3694   -4.7306  -11.3504 C.ar    1  UNL1        0.1300
     18 O           8.0504   -5.7957  -11.8536 O.3     1  UNL1       -0.4057
     19 C           8.3552   -5.8515  -13.2390 C.3     1  UNL1        0.5752
     20 F           7.6143   -5.0182  -14.0000 F       1  UNL1       -0.1328
     21 F           9.6618   -5.5781  -13.4267 F       1  UNL1       -0.1328
     22 F           8.1203   -7.1114  -13.6691 F       1  UNL1       -0.1328
     23 C           7.3210   -3.4451  -11.8884 C.ar    1  UNL1       -0.0194
     24 C           6.5588   -2.4519  -11.2583 C.ar    1  UNL1       -0.0551
     25 C           6.1037    1.2321   -7.0126 C.ar    1  UNL1       -0.0566
     26 C           5.5182    2.1056   -6.0878 C.ar    1  UNL1       -0.0360
     27 C           2.3613    2.9422   -2.6682 C.ar    1  UNL1        0.0240
     28 C           1.3564    2.3939   -1.8263 C.ar    1  UNL1        0.0524
     29 C           0.9232    3.1828   -0.7489 C.ar    1  UNL1       -0.0192
     30 C           1.4529    4.4576   -0.5246 C.ar    1  UNL1        0.0430
     31 CL          0.9075    5.3748    0.8265 Cl      1  UNL1       -0.0835
     32 C           2.4211    4.9861   -1.3702 C.ar    1  UNL1       -0.0426
     33 C           2.8749    4.2294   -2.4454 C.ar    1  UNL1       -0.0492
     34 H          -2.4978    0.7937   -1.5531 H       1  UNL1        0.0247
     35 H          -1.6246    2.2717   -1.9880 H       1  UNL1        0.0247
     36 H          -1.6535    0.9038   -3.1075 H       1  UNL1        0.0247
     37 H          -0.3320    0.8108   -0.3229 H       1  UNL1        0.0489
     38 H          -0.4046   -0.4904   -1.4693 H       1  UNL1        0.0489
     39 H           1.1738   -0.7258   -3.0430 H       1  UNL1        0.0810
     40 H           3.0048   -0.0145   -4.4408 H       1  UNL1        0.0653
     41 H           2.2829    1.1818   -6.4666 H       1  UNL1        0.0639
     42 H           3.2900   -0.4541   -7.9310 H       1  UNL1        0.0621
     43 H           6.8292   -0.3836   -9.0346 H       1  UNL1        0.0316
     44 H           6.4977   -1.5081   -7.7172 H       1  UNL1        0.0316
     45 H           4.3009   -2.1280   -8.7967 H       1  UNL1        0.0316
     46 H           4.6228   -0.9984  -10.1000 H       1  UNL1        0.0316
     47 H           5.4523   -4.2459   -8.5785 H       1  UNL1        0.0621
     48 H           6.7594   -5.9936   -9.7108 H       1  UNL1        0.0654
     49 H           7.8583   -3.1706  -12.7868 H       1  UNL1        0.0654
     50 H           6.5120   -1.4595  -11.6951 H       1  UNL1        0.0621
     51 H           7.1767    1.2885   -7.1847 H       1  UNL1        0.0621
     52 H           6.1352    2.8190   -5.5512 H       1  UNL1        0.0639
     53 H           0.1811    2.8172   -0.0481 H       1  UNL1        0.0653
     54 H           2.8300    5.9780   -1.1950 H       1  UNL1        0.0632
     55 H           3.6395    4.6377   -3.1030 H       1  UNL1        0.0625
@<TRIPOS>BOND
     1     1    34    1
     2     1    35    1
     3     1    36    1
     4     2     1    1
     5     2    37    1
     6     2    38    1
     7     3     2    1
     8     4     3   ar
     9     4    39    1
    10     5     4   ar
    11     5    40    1
    12     6     5   ar
    13     7     6    2
    14     8     7    1
    15     9     8   ar
    16     9    41    1
    17    10     9   ar
    18    10    42    1
    19    11    10   ar
    20    12    11    1
    21    12    43    1
    22    12    44    1
    23    13    12    1
    24    13    45    1
    25    13    46    1
    26    14    13    1
    27    15    14   ar
    28    15    47    1
    29    16    15   ar
    30    16    48    1
    31    17    16   ar
    32    18    17    1
    33    19    18    1
    34    20    19    1
    35    21    19    1
    36    22    19    1
    37    23    17   ar
    38    23    49    1
    39    24    23   ar
    40    24    14   ar
    41    24    50    1
    42    25    11   ar
    43    25    51    1
    44    26    25   ar
    45    26     8   ar
    46    26    52    1
    47    27     6   ar
    48    28    27   ar
    49    28     3   ar
    50    29    28   ar
    51    29    53    1
    52    30    29   ar
    53    31    30    1
    54    32    30   ar
    55    32    54    1
    56    33    32   ar
    57    33    27   ar
    58    33    55    1
@<TRIPOS>MOLECULE
mol_131_akc_s00436_021_07169_w
>129.sdf
 42 43 0 0 0
SMALL
GASTEIGER

@<TRIPOS>ATOM
      1 C           0.9815    0.2990    0.0276 C.3     1  UNL1        0.0790
      2 O           2.3405   -0.1295   -0.0036 O.3     1  UNL1       -0.4913
      3 C           3.0116    0.0043   -1.1927 C.ar    1  UNL1        0.1657
      4 C           2.6342    0.9533   -2.1505 C.ar    1  UNL1       -0.0089
      5 C           3.3406    1.1397   -3.3482 C.ar    1  UNL1       -0.0177
      6 C           2.9267    2.1361   -4.3609 C.2     1  UNL1       -0.0494
      7 C           1.8281    2.8988   -4.2407 C.2     1  UNL1        0.0013
      8 C           1.4515    3.9480   -5.2205 C.2     1  UNL1        0.2459
      9 O           1.8098    3.8636   -6.3941 O.2     1  UNL1       -0.2702
     10 N           0.6482    4.9785   -4.7224 N.am    1  UNL1       -0.2348
     11 C           0.0183    5.8431   -5.7112 C.3     1  UNL1        0.0263
     12 C          -1.3301    6.3776   -5.2363 C.3     1  UNL1       -0.0179
     13 C          -1.2063    6.9322   -3.8538 C.2     1  UNL1       -0.0776
     14 C          -0.2380    6.5257   -3.0278 C.2     1  UNL1       -0.0031
     15 C           0.7094    5.4360   -3.3960 C.2     1  UNL1        0.2456
     16 O           1.4360    5.0005   -2.5080 O.2     1  UNL1       -0.2702
     17 C           4.4935    0.3776   -3.5539 C.ar    1  UNL1       -0.0089
     18 C           4.9201   -0.5498   -2.5901 C.ar    1  UNL1        0.1657
     19 O           6.0468   -1.3237   -2.7524 O.3     1  UNL1       -0.4913
     20 C           7.1208   -0.7056   -3.4529 C.3     1  UNL1        0.0790
     21 C           4.1597   -0.7700   -1.4204 C.ar    1  UNL1        0.2035
     22 O           4.6714   -1.7061   -0.5507 O.3     1  UNL1       -0.4885
     23 C           3.7293   -2.4588    0.2028 C.3     1  UNL1        0.0791
     24 H           0.8975    1.3877   -0.0561 H       1  UNL1        0.0660
     25 H           0.3926   -0.2045   -0.7473 H       1  UNL1        0.0660
     26 H           0.5646    0.0222    1.0009 H       1  UNL1        0.0660
     27 H           1.7867    1.5897   -1.9392 H       1  UNL1        0.0661
     28 H           3.5717    2.2563   -5.2272 H       1  UNL1        0.0625
     29 H           1.1457    2.8053   -3.4077 H       1  UNL1        0.0670
     30 H           0.7085    6.6768   -5.8975 H       1  UNL1        0.0473
     31 H          -0.1163    5.3114   -6.6596 H       1  UNL1        0.0473
     32 H          -1.6771    7.1556   -5.9232 H       1  UNL1        0.0323
     33 H          -2.0805    5.5782   -5.2302 H       1  UNL1        0.0323
     34 H          -1.9262    7.6810   -3.5283 H       1  UNL1        0.0574
     35 H          -0.1396    6.9130   -2.0182 H       1  UNL1        0.0666
     36 H           5.0570    0.5093   -4.4728 H       1  UNL1        0.0661
     37 H           6.9435   -0.7315   -4.5325 H       1  UNL1        0.0660
     38 H           7.2964    0.3199   -3.1089 H       1  UNL1        0.0660
     39 H           8.0281   -1.2839   -3.2526 H       1  UNL1        0.0660
     40 H           3.4289   -1.9157    1.1039 H       1  UNL1        0.0660
     41 H           2.8601   -2.7559   -0.3951 H       1  UNL1        0.0660
     42 H           4.2266   -3.3740    0.5384 H       1  UNL1        0.0660
@<TRIPOS>BOND
     1     1    24    1
     2     1    25    1
     3     1    26    1
     4     2     1    1
     5     3     2    1
     6     4     3   ar
     7     4    27    1
     8     5     4   ar
     9     6     5    1
    10     6    28    1
    11     7     6    2
    12     7    29    1
    13     8     7    1
    14     9     8    2
    15    10     8   am
    16    11    10    1
    17    11    30    1
    18    11    31    1
    19    12    11    1
    20    12    32    1
    21    12    33    1
    22    13    12    1
    23    13    34    1
    24    14    13    2
    25    14    35    1
    26    15    14    1
    27    15    10   am
    28    16    15    2
    29    17     5   ar
    30    17    36    1
    31    18    17   ar
    32    19    18    1
    33    20    19    1
    34    20    37    1
    35    20    38    1
    36    20    39    1
    37    21    18   ar
    38    21     3   ar
    39    22    21    1
    40    23    22    1
    41    23    40    1
    42    23    41    1
    43    23    42    1
@<TRIPOS>MOLECULE
mol_132_akc_s00436_021_07169_w
>130.sdf
 68 70 0 0 0
SMALL
GASTEIGER

@<TRIPOS>ATOM
      1 C           3.7151    8.6980   -6.8343 C.3     1  UNL1        0.0790
      2 O           3.8358    9.8930   -6.0720 O.3     1  UNL1       -0.4913
      3 C           3.1844    9.9356   -4.8644 C.ar    1  UNL1        0.1657
      4 C           2.8577    8.7696   -4.1435 C.ar    1  UNL1       -0.0089
      5 C           2.2677    8.8357   -2.8771 C.ar    1  UNL1       -0.0177
      6 C           1.8849    7.6035   -2.1605 C.2     1  UNL1       -0.0494
      7 C           1.9144    7.5110   -0.8211 C.2     1  UNL1        0.0014
      8 C           1.2729    6.3628   -0.1245 C.2     1  UNL1        0.2471
      9 O           1.7528    5.2574   -0.3818 O.2     1  UNL1       -0.2702
     10 N           0.1920    6.6266    0.7578 N.am    1  UNL1       -0.2194
     11 C          -0.4426    5.4676    1.5195 C.3     1  UNL1        0.0354
     12 C           0.2592    4.0840    1.3994 C.3     1  UNL1       -0.0338
     13 C          -0.4149    2.9493    2.1717 C.3     1  UNL1       -0.0514
     14 C          -1.8796    2.8178    1.7848 C.3     1  UNL1       -0.0529
     15 C          -2.5913    4.1419    2.0070 C.3     1  UNL1       -0.0514
     16 C          -1.9479    5.2641    1.1836 C.3     1  UNL1       -0.0338
     17 C          -0.2845    7.9383    0.9003 C.2     1  UNL1        0.3092
     18 O           0.1341    8.9115    0.2623 O.2     1  UNL1       -0.2522
     19 N          -1.3161    8.1845    1.7703 N.am    1  UNL1       -0.2961
     20 C          -2.0569    9.4488    1.6850 C.3     1  UNL1        0.0246
     21 C          -2.7531    9.7840    3.0038 C.3     1  UNL1       -0.0345
     22 C          -3.5476   11.0853    2.8957 C.3     1  UNL1       -0.0514
     23 C          -4.5609   11.0304    1.7562 C.3     1  UNL1       -0.0529
     24 C          -3.8879   10.6963    0.4288 C.3     1  UNL1       -0.0514
     25 C          -3.0650    9.4119    0.5198 C.3     1  UNL1       -0.0345
     26 C           1.9758   10.0962   -2.3461 C.ar    1  UNL1       -0.0089
     27 C           2.3315   11.2673   -3.0199 C.ar    1  UNL1        0.1657
     28 O           2.0817   12.5172   -2.4992 O.3     1  UNL1       -0.4913
     29 C           2.1712   12.6037   -1.0788 C.3     1  UNL1        0.0790
     30 C           2.9182   11.1994   -4.2978 C.ar    1  UNL1        0.2035
     31 O           3.2450   12.4184   -4.8438 O.3     1  UNL1       -0.4885
     32 C           3.1975   12.5445   -6.2570 C.3     1  UNL1        0.0791
     33 H           4.2142    7.8555   -6.3466 H       1  UNL1        0.0660
     34 H           2.6642    8.4722   -7.0438 H       1  UNL1        0.0660
     35 H           4.2222    8.8603   -7.7902 H       1  UNL1        0.0660
     36 H           3.0843    7.7859   -4.5420 H       1  UNL1        0.0661
     37 H           1.5064    6.7845   -2.7658 H       1  UNL1        0.0625
     38 H           2.3086    8.2975   -0.1884 H       1  UNL1        0.0670
     39 H          -0.3712    5.7596    2.5764 H       1  UNL1        0.0506
     40 H           0.2594    3.7672    0.3488 H       1  UNL1        0.0283
     41 H           1.2988    4.1568    1.7389 H       1  UNL1        0.0283
     42 H           0.1018    2.0053    1.9582 H       1  UNL1        0.0266
     43 H          -0.3265    3.1266    3.2490 H       1  UNL1        0.0266
     44 H          -1.9656    2.5271    0.7298 H       1  UNL1        0.0265
     45 H          -2.3556    2.0256    2.3740 H       1  UNL1        0.0265
     46 H          -3.6477    4.0416    1.7347 H       1  UNL1        0.0266
     47 H          -2.5621    4.3967    3.0745 H       1  UNL1        0.0266
     48 H          -2.5445    6.1588    1.3649 H       1  UNL1        0.0283
     49 H          -2.0564    5.0485    0.1147 H       1  UNL1        0.0283
     50 H          -1.6000    7.5097    2.4618 H       1  UNL1        0.1505
     51 H          -1.3353   10.2519    1.4789 H       1  UNL1        0.0499
     52 H          -3.4243    8.9659    3.2927 H       1  UNL1        0.0283
     53 H          -2.0071    9.8776    3.8018 H       1  UNL1        0.0283
     54 H          -4.0649   11.2823    3.8407 H       1  UNL1        0.0266
     55 H          -2.8587   11.9230    2.7275 H       1  UNL1        0.0266
     56 H          -5.3226   10.2735    1.9803 H       1  UNL1        0.0265
     57 H          -5.0804   11.9922    1.6749 H       1  UNL1        0.0265
     58 H          -4.6485   10.5942   -0.3540 H       1  UNL1        0.0266
     59 H          -3.2367   11.5277    0.1309 H       1  UNL1        0.0266
     60 H          -2.5434    9.2565   -0.4326 H       1  UNL1        0.0283
     61 H          -3.7412    8.5565    0.6432 H       1  UNL1        0.0283
     62 H           1.4433   10.1628   -1.4032 H       1  UNL1        0.0661
     63 H           1.2592   12.2230   -0.6069 H       1  UNL1        0.0660
     64 H           3.0568   12.0836   -0.6953 H       1  UNL1        0.0660
     65 H           2.2651   13.6603   -0.8115 H       1  UNL1        0.0660
     66 H           4.1235   12.1809   -6.7107 H       1  UNL1        0.0660
     67 H           2.3166   12.0586   -6.6891 H       1  UNL1        0.0660
     68 H           3.1314   13.6127   -6.4901 H       1  UNL1        0.0660
@<TRIPOS>BOND
     1     1    33    1
     2     1    34    1
     3     1    35    1
     4     2     1    1
     5     3     2    1
     6     4     3   ar
     7     4    36    1
     8     5     4   ar
     9     6     5    1
    10     6    37    1
    11     7     6    2
    12     7    38    1
    13     8     7    1
    14     9     8    2
    15    10     8   am
    16    11    10    1
    17    11    39    1
    18    12    11    1
    19    12    40    1
    20    12    41    1
    21    13    12    1
    22    13    42    1
    23    13    43    1
    24    14    13    1
    25    14    44    1
    26    14    45    1
    27    15    14    1
    28    15    46    1
    29    15    47    1
    30    16    15    1
    31    16    11    1
    32    16    48    1
    33    16    49    1
    34    17    10   am
    35    18    17    2
    36    19    17   am
    37    19    50    1
    38    20    19    1
    39    20    51    1
    40    21    20    1
    41    21    52    1
    42    21    53    1
    43    22    21    1
    44    22    54    1
    45    22    55    1
    46    23    22    1
    47    23    56    1
    48    23    57    1
    49    24    23    1
    50    24    58    1
    51    24    59    1
    52    25    24    1
    53    25    20    1
    54    25    60    1
    55    25    61    1
    56    26     5   ar
    57    26    62    1
    58    27    26   ar
    59    28    27    1
    60    29    28    1
    61    29    63    1
    62    29    64    1
    63    29    65    1
    64    30    27   ar
    65    30     3   ar
    66    31    30    1
    67    32    31    1
    68    32    66    1
    69    32    67    1
    70    32    68    1
@<TRIPOS>MOLECULE
mol_133_akc_acsjmedchem1c00047
>131.sdf
 53 57 0 0 0
SMALL
GASTEIGER

@<TRIPOS>ATOM
      1 F           2.0762   -0.1594    0.0175 F       1  UNL1       -0.2048
      2 C           0.7437   -0.0162    0.0437 C.ar    1  UNL1        0.1327
      3 C           0.1484    1.2429    0.0843 C.ar    1  UNL1        0.0374
      4 C          -1.2466    1.3471    0.1351 C.ar    1  UNL1       -0.0285
      5 C          -2.0491    0.2040    0.1079 C.ar    1  UNL1        0.0356
      6 N          -3.4587    0.2481    0.0965 N.am    1  UNL1       -0.2693
      7 C          -4.2448    1.3521   -0.1340 C.2     1  UNL1        0.3064
      8 O          -3.8215    2.4742   -0.3992 O.2     1  UNL1       -0.2523
      9 N          -5.6044    1.1224   -0.0808 N.am    1  UNL1       -0.2854
     10 C          -6.3340   -0.0926    0.2246 C.3     1  UNL1        0.0162
     11 C          -7.6924    0.1394   -0.4170 C.3     1  UNL1       -0.0357
     12 C          -7.9159    1.6360   -0.2420 C.3     1  UNL1       -0.0357
     13 C          -6.5150    2.2352   -0.2958 C.3     1  UNL1        0.0162
     14 C          -1.4358   -1.0544    0.0794 C.ar    1  UNL1       -0.0377
     15 C          -0.0421   -1.1658    0.0438 C.ar    1  UNL1       -0.0240
     16 C           0.9340    2.5009    0.0664 C.ar    1  UNL1        0.0790
     17 N           0.5377    3.5083    0.7900 N.ar    1  UNL1       -0.2117
     18 C           1.2563    4.6670    0.7013 C.ar    1  UNL1        0.2367
     19 N           1.0118    5.8340    1.2616 N.ar    1  UNL1       -0.2168
     20 C           2.0167    6.6681    0.8430 C.ar    1  UNL1        0.0700
     21 C           2.9345    6.0091    0.0491 C.ar    1  UNL1        0.1269
     22 N           2.3925    4.7392   -0.1002 N.ar    1  UNL1       -0.2719
     23 C           2.7830    3.6762   -0.9066 C.ar    1  UNL1        0.0164
     24 C           2.1072    2.5241   -0.8683 C.ar    1  UNL1       -0.0189
     25 N           4.0715    6.4108   -0.5945 N.pl3   1  UNL1       -0.3106
     26 C           4.3297    7.8376   -0.8523 C.3     1  UNL1        0.0370
     27 C           5.1821    7.9426   -2.1339 C.3     1  UNL1        0.0634
     28 O           6.3962    7.1688   -2.0491 O.3     1  UNL1       -0.3767
     29 C           6.1055    5.7890   -1.7615 C.3     1  UNL1        0.0634
     30 C           5.3320    5.6603   -0.4406 C.3     1  UNL1        0.0370
     31 H          -1.6824    2.3413    0.1880 H       1  UNL1        0.0643
     32 H          -3.9317   -0.6391    0.1271 H       1  UNL1        0.1564
     33 H          -6.4119   -0.1671    1.3143 H       1  UNL1        0.0465
     34 H          -5.8461   -0.9878   -0.1659 H       1  UNL1        0.0465
     35 H          -7.6427   -0.1021   -1.4850 H       1  UNL1        0.0281
     36 H          -8.4826   -0.4650    0.0354 H       1  UNL1        0.0281
     37 H          -8.5670    2.0525   -1.0153 H       1  UNL1        0.0281
     38 H          -8.3746    1.8401    0.7304 H       1  UNL1        0.0281
     39 H          -6.3001    2.6964   -1.2661 H       1  UNL1        0.0465
     40 H          -6.3679    2.9837    0.4880 H       1  UNL1        0.0465
     41 H          -2.0305   -1.9639    0.0661 H       1  UNL1        0.0637
     42 H           0.4346   -2.1396    0.0138 H       1  UNL1        0.0647
     43 H           2.0378    7.7030    1.1569 H       1  UNL1        0.0865
     44 H           3.6231    3.8283   -1.5670 H       1  UNL1        0.0815
     45 H           2.3604    1.6755   -1.4883 H       1  UNL1        0.0654
     46 H           4.8748    8.2691   -0.0037 H       1  UNL1        0.0487
     47 H           3.4011    8.4023   -0.9909 H       1  UNL1        0.0487
     48 H           4.6099    7.5987   -3.0042 H       1  UNL1        0.0575
     49 H           5.4670    8.9842   -2.3095 H       1  UNL1        0.0575
     50 H           7.0537    5.2480   -1.6992 H       1  UNL1        0.0575
     51 H           5.5291    5.3647   -2.5946 H       1  UNL1        0.0575
     52 H           5.9156    6.1015    0.3773 H       1  UNL1        0.0487
     53 H           5.1808    4.6066   -0.1926 H       1  UNL1        0.0487
@<TRIPOS>BOND
     1     2     1    1
     2     3     2   ar
     3     4     3   ar
     4     4    31    1
     5     5     4   ar
     6     6     5    1
     7     6    32    1
     8     7     6   am
     9     8     7    2
    10     9     7   am
    11    10     9    1
    12    10    33    1
    13    10    34    1
    14    11    10    1
    15    11    35    1
    16    11    36    1
    17    12    11    1
    18    12    37    1
    19    12    38    1
    20    13    12    1
    21    13     9    1
    22    13    39    1
    23    13    40    1
    24    14     5   ar
    25    14    41    1
    26    15    14   ar
    27    15     2   ar
    28    15    42    1
    29    16     3    1
    30    17    16   ar
    31    18    17   ar
    32    19    18   ar
    33    20    19   ar
    34    20    43    1
    35    21    20   ar
    36    22    21   ar
    37    22    18   ar
    38    23    22   ar
    39    23    44    1
    40    24    23   ar
    41    24    16   ar
    42    24    45    1
    43    25    21    1
    44    26    25    1
    45    26    46    1
    46    26    47    1
    47    27    26    1
    48    27    48    1
    49    27    49    1
    50    28    27    1
    51    29    28    1
    52    29    50    1
    53    29    51    1
    54    30    29    1
    55    30    25    1
    56    30    52    1
    57    30    53    1
@<TRIPOS>MOLECULE
mol_134_akc_jbioorg2021104816
>132.sdf
 56 60 0 0 0
SMALL
GASTEIGER

@<TRIPOS>ATOM
      1 O           2.5354    1.8642   -3.1906 O.3     1  UNL1       -0.3869
      2 C           2.2513    1.6455   -1.8020 C.3     1  UNL1        0.1052
      3 C           0.7413    1.4784   -1.5774 C.3     1  UNL1        0.1169
      4 O           0.0351    2.6570   -1.9828 O.3     1  UNL1       -0.4884
      5 C          -1.3378    2.6391   -1.8293 C.ar    1  UNL1        0.1380
      6 C          -2.0631    1.6258   -1.3346 C.ar    1  UNL1        0.0652
      7 C          -3.5209    1.6795   -1.1829 C.ar    1  UNL1        0.3408
      8 O          -4.1260    0.7158   -0.7242 O.2     1  UNL1       -0.2451
      9 O          -4.1586    2.8422   -1.5675 O.2     1  UNL1       -0.4219
     10 C          -3.4284    3.9173   -2.1061 C.ar    1  UNL1        0.1426
     11 C          -4.1680    5.0377   -2.4846 C.ar    1  UNL1       -0.0185
     12 C          -3.5086    6.1323   -3.0350 C.ar    1  UNL1       -0.0582
     13 C          -2.1236    6.0953   -3.2011 C.ar    1  UNL1       -0.0609
     14 C          -1.3936    4.9644   -2.8134 C.ar    1  UNL1       -0.0476
     15 C          -2.0415    3.8552   -2.2557 C.ar    1  UNL1        0.0592
     16 C           2.9953    0.3827   -1.3206 C.3     1  UNL1        0.0494
     17 N           4.4446    0.4273   -1.4489 N.am    1  UNL1       -0.2629
     18 C           5.2310    1.5590   -1.2943 C.2     1  UNL1        0.2714
     19 O           4.9386    2.7262   -1.1036 O.2     1  UNL1       -0.2679
     20 C           6.6734    1.0772   -1.3191 C.2     1  UNL1        0.1527
     21 N           7.7619    1.7759   -1.2490 N.2     1  UNL1       -0.1743
     22 N           7.6366    3.1376   -1.1639 N.am    1  UNL1       -0.2023
     23 C           8.7866    3.9123   -1.0873 C.2     1  UNL1        0.2634
     24 O           9.9311    3.4647   -1.1009 O.2     1  UNL1       -0.2684
     25 C           8.6021    5.3865   -1.0060 C.ar    1  UNL1        0.0412
     26 C           7.4766    5.9793   -0.4375 C.ar    1  UNL1       -0.0314
     27 C           7.4348    7.3636   -0.3798 C.ar    1  UNL1        0.0283
     28 N           8.4152    8.1688   -0.8450 N.ar    1  UNL1       -0.2632
     29 C           9.4999    7.5664   -1.3799 C.ar    1  UNL1        0.0283
     30 C           9.6392    6.1969   -1.4783 C.ar    1  UNL1       -0.0314
     31 C           6.6120   -0.3734   -1.4017 C.ar    1  UNL1        0.0284
     32 C           7.6359   -1.3005   -1.3587 C.ar    1  UNL1       -0.0506
     33 C           7.2732   -2.6467   -1.3785 C.ar    1  UNL1       -0.0610
     34 C           5.9191   -3.0221   -1.4655 C.ar    1  UNL1       -0.0600
     35 C           4.9003   -2.0590   -1.5238 C.ar    1  UNL1       -0.0396
     36 C           5.2637   -0.7237   -1.4736 C.ar    1  UNL1        0.0461
     37 H           2.1059    1.1697   -3.7157 H       1  UNL1        0.2100
     38 H           2.5794    2.5360   -1.2592 H       1  UNL1        0.0643
     39 H           0.3813    0.6309   -2.1732 H       1  UNL1        0.0723
     40 H           0.5587    1.2990   -0.5107 H       1  UNL1        0.0723
     41 H          -1.6330    0.6911   -1.0031 H       1  UNL1        0.0726
     42 H          -5.2462    5.0538   -2.3520 H       1  UNL1        0.0654
     43 H          -4.0715    7.0125   -3.3354 H       1  UNL1        0.0619
     44 H          -1.6079    6.9495   -3.6338 H       1  UNL1        0.0618
     45 H          -0.3146    4.9617   -2.9557 H       1  UNL1        0.0626
     46 H           2.7652    0.1808   -0.2677 H       1  UNL1        0.0495
     47 H           2.6386   -0.4682   -1.9169 H       1  UNL1        0.0495
     48 H           6.7047    3.5486   -1.2263 H       1  UNL1        0.1776
     49 H           6.6635    5.4024   -0.0125 H       1  UNL1        0.0640
     50 H           6.5900    7.8819    0.0667 H       1  UNL1        0.0830
     51 H          10.2755    8.2396   -1.7350 H       1  UNL1        0.0830
     52 H          10.5396    5.7666   -1.9091 H       1  UNL1        0.0640
     53 H           8.6735   -0.9885   -1.2891 H       1  UNL1        0.0625
     54 H           8.0436   -3.4131   -1.3173 H       1  UNL1        0.0618
     55 H           5.6627   -4.0804   -1.4791 H       1  UNL1        0.0618
     56 H           3.8680   -2.3792   -1.5985 H       1  UNL1        0.0636
@<TRIPOS>BOND
     1     1    37    1
     2     2     1    1
     3     2    38    1
     4     3     2    1
     5     3    39    1
     6     3    40    1
     7     4     3    1
     8     5     4    1
     9     6     5   ar
    10     6    41    1
    11     7     6   ar
    12     8     7    2
    13     9     7   ar
    14    10     9   ar
    15    11    10   ar
    16    11    42    1
    17    12    11   ar
    18    12    43    1
    19    13    12   ar
    20    13    44    1
    21    14    13   ar
    22    14    45    1
    23    15    14   ar
    24    15     5   ar
    25    15    10   ar
    26    16     2    1
    27    16    46    1
    28    16    47    1
    29    17    16    1
    30    18    17   am
    31    19    18    2
    32    20    18    1
    33    21    20    2
    34    22    21    1
    35    22    48    1
    36    23    22   am
    37    24    23    2
    38    25    23    1
    39    26    25   ar
    40    26    49    1
    41    27    26   ar
    42    27    50    1
    43    28    27   ar
    44    29    28   ar
    45    29    51    1
    46    30    29   ar
    47    30    25   ar
    48    30    52    1
    49    31    20    1
    50    32    31   ar
    51    32    53    1
    52    33    32   ar
    53    33    54    1
    54    34    33   ar
    55    34    55    1
    56    35    34   ar
    57    35    56    1
    58    36    35   ar
    59    36    17    1
    60    36    31   ar
@<TRIPOS>MOLECULE
mol_135_akc_jbioorg2021104816
>132_2.sdf
 56 60 0 0 0
SMALL
GASTEIGER

@<TRIPOS>ATOM
      1 O           0.8703    2.1179   -0.6225 O.3     1  UNL1       -0.3869
      2 C           2.2987    2.1238   -0.7675 C.3     1  UNL1        0.1052
      3 C           2.6611    1.4328   -2.0875 C.3     1  UNL1        0.1169
      4 O           2.0603    2.0623   -3.2265 O.3     1  UNL1       -0.4884
      5 C           2.3658    1.4818   -4.4494 C.ar    1  UNL1        0.1380
      6 C           3.1732    0.4259   -4.6364 C.ar    1  UNL1        0.0652
      7 C           3.4959   -0.1204   -5.9591 C.ar    1  UNL1        0.3408
      8 O           4.2055   -1.1154   -6.0522 O.2     1  UNL1       -0.2451
      9 O           2.9934    0.5433   -7.0578 O.2     1  UNL1       -0.4219
     10 C           2.1130    1.6291   -6.8965 C.ar    1  UNL1        0.1426
     11 C           1.6072    2.1881   -8.0713 C.ar    1  UNL1       -0.0185
     12 C           0.6976    3.2379   -7.9834 C.ar    1  UNL1       -0.0582
     13 C           0.3035    3.7114   -6.7318 C.ar    1  UNL1       -0.0609
     14 C           0.8293    3.1485   -5.5612 C.ar    1  UNL1       -0.0476
     15 C           1.7566    2.1028   -5.6321 C.ar    1  UNL1        0.0592
     16 C           2.9669    1.3725    0.4159 C.3     1  UNL1        0.0494
     17 N           4.4142    1.3748    0.4014 N.am    1  UNL1       -0.2629
     18 C           5.1608    2.5434    0.4676 C.2     1  UNL1        0.2714
     19 O           4.8058    3.7011    0.5015 O.2     1  UNL1       -0.2679
     20 C           6.6186    2.1044    0.4893 C.2     1  UNL1        0.1527
     21 N           7.6840    2.8327    0.5428 N.2     1  UNL1       -0.1743
     22 N           7.5370    4.1915    0.5781 N.am    1  UNL1       -0.2023
     23 C           8.6797    4.9753    0.6159 C.2     1  UNL1        0.2634
     24 O           9.8306    4.5309    0.6092 O.2     1  UNL1       -0.2684
     25 C           8.4953    6.4494    0.6424 C.ar    1  UNL1        0.0412
     26 C           7.3721    7.0641    1.1931 C.ar    1  UNL1       -0.0314
     27 C           7.3378    8.4497    1.2049 C.ar    1  UNL1        0.0283
     28 N           8.3204    9.2348    0.7119 N.ar    1  UNL1       -0.2632
     29 C           9.3996    8.6131    0.1936 C.ar    1  UNL1        0.0283
     30 C           9.5339    7.2395    0.1402 C.ar    1  UNL1       -0.0314
     31 C           6.6054    0.6511    0.4513 C.ar    1  UNL1        0.0284
     32 C           7.6759   -0.2239    0.4557 C.ar    1  UNL1       -0.0506
     33 C           7.3803   -1.5838    0.4480 C.ar    1  UNL1       -0.0610
     34 C           6.0412   -2.0196    0.4372 C.ar    1  UNL1       -0.0600
     35 C           4.9697   -1.1049    0.4198 C.ar    1  UNL1       -0.0396
     36 C           5.2670    0.2465    0.4229 C.ar    1  UNL1        0.0461
     37 H           0.6268    1.8723    0.2847 H       1  UNL1        0.2100
     38 H           2.6117    3.1733   -0.8022 H       1  UNL1        0.0643
     39 H           3.7499    1.4646   -2.2065 H       1  UNL1        0.0723
     40 H           2.3091    0.3950   -2.0382 H       1  UNL1        0.0723
     41 H           3.6571   -0.1037   -3.8319 H       1  UNL1        0.0726
     42 H           1.9150    1.8031   -9.0379 H       1  UNL1        0.0654
     43 H           0.2931    3.6815   -8.8892 H       1  UNL1        0.0619
     44 H          -0.4173    4.5230   -6.6636 H       1  UNL1        0.0618
     45 H           0.5071    3.5361   -4.5981 H       1  UNL1        0.0626
     46 H           2.6529    1.8570    1.3492 H       1  UNL1        0.0495
     47 H           2.5810    0.3476    0.4629 H       1  UNL1        0.0495
     48 H           6.6011    4.5889    0.4970 H       1  UNL1        0.1776
     49 H           6.5576    6.5056    1.6374 H       1  UNL1        0.0640
     50 H           6.4977    8.9875    1.6367 H       1  UNL1        0.0830
     51 H          10.1811    9.2674   -0.1831 H       1  UNL1        0.0830
     52 H          10.4309    6.7915   -0.2764 H       1  UNL1        0.0640
     53 H           8.6994    0.1396    0.4650 H       1  UNL1        0.0625
     54 H           8.1895   -2.3127    0.4537 H       1  UNL1        0.0618
     55 H           5.8423   -3.0913    0.4406 H       1  UNL1        0.0618
     56 H           3.9550   -1.4851    0.4120 H       1  UNL1        0.0636
@<TRIPOS>BOND
     1     1    37    1
     2     3     2    1
     3     3    39    1
     4     3    40    1
     5     4     3    1
     6     5     4    1
     7     6     5   ar
     8     6    41    1
     9     7     6   ar
    10     8     7    2
    11     9     7   ar
    12    10     9   ar
    13    11    10   ar
    14    11    42    1
    15    12    11   ar
    16    12    43    1
    17    13    12   ar
    18    13    44    1
    19    14    13   ar
    20    14    45    1
    21    15    14   ar
    22    15     5   ar
    23    15    10   ar
    24    16     2    1
    25    16    46    1
    26    16    47    1
    27    17    16    1
    28    18    17   am
    29    19    18    2
    30    20    18    1
    31    21    20    2
    32    22    21    1
    33    22    48    1
    34    23    22   am
    35    24    23    2
    36    25    23    1
    37    26    25   ar
    38    26    49    1
    39    27    26   ar
    40    27    50    1
    41    28    27   ar
    42    29    28   ar
    43    29    51    1
    44    30    29   ar
    45    30    25   ar
    46    30    52    1
    47    31    20    1
    48    32    31   ar
    49    32    53    1
    50    33    32   ar
    51    33    54    1
    52    34    33   ar
    53    34    55    1
    54    35    34   ar
    55    35    56    1
    56    36    35   ar
    57    36    17    1
    58    36    31   ar
    59     2    38    1
    60     2     1    1
@<TRIPOS>MOLECULE
mol_136_akc_jhet4217
>133.sdf
 34 36 0 0 0
SMALL
GASTEIGER

@<TRIPOS>ATOM
      1 O           3.3098    1.0437    0.2702 O.3     1  UNL1       -0.4771
      2 C           2.4954   -0.0228    0.1071 C.2     1  UNL1        0.3375
      3 O           1.2889    0.0925   -0.0114 O.2     1  UNL1       -0.2451
      4 C           3.2171   -1.3271    0.0912 C.ar    1  UNL1        0.0700
      5 C           4.2999   -1.4806    0.9635 C.ar    1  UNL1       -0.0217
      6 C           4.9884   -2.6810    0.9589 C.ar    1  UNL1        0.0654
      7 C           6.1499   -2.8543    1.8446 C.2     1  UNL1       -0.0357
      8 C           6.9095   -3.9609    1.8949 C.2     1  UNL1       -0.0512
      9 C           8.0157   -4.0868    2.8546 C.ar    1  UNL1       -0.0066
     10 C           9.3436   -3.7346    2.5640 C.ar    1  UNL1        0.0481
     11 CL          9.7978   -3.0764    1.0306 Cl      1  UNL1       -0.0829
     12 C          10.3457   -3.9019    3.5260 C.ar    1  UNL1       -0.0428
     13 C          10.0321   -4.4069    4.7886 C.ar    1  UNL1       -0.0603
     14 C           8.7155   -4.7448    5.0919 C.ar    1  UNL1       -0.0611
     15 C           7.7143   -4.5875    4.1307 C.ar    1  UNL1       -0.0532
     16 N           4.6300   -3.7124    0.1645 N.ar    1  UNL1       -0.2472
     17 C           3.5663   -3.5834   -0.6471 C.ar    1  UNL1        0.0724
     18 C           3.2121   -4.6728   -1.4325 C.ar    1  UNL1       -0.0357
     19 C           2.1369   -4.6334   -2.3220 C.ar    1  UNL1       -0.0597
     20 C           1.3893   -3.4735   -2.4383 C.ar    1  UNL1       -0.0611
     21 C           1.7212   -2.3628   -1.6612 C.ar    1  UNL1       -0.0518
     22 C           2.8104   -2.3950   -0.7438 C.ar    1  UNL1        0.0144
     23 H           4.5893   -0.6963    1.6523 H       1  UNL1        0.0647
     24 H           6.3862   -2.0167    2.4949 H       1  UNL1        0.0639
     25 H           6.7186   -4.8216    1.2590 H       1  UNL1        0.0625
     26 H          11.3765   -3.6385    3.2986 H       1  UNL1        0.0632
     27 H          10.8138   -4.5411    5.5326 H       1  UNL1        0.0618
     28 H           8.4651   -5.1358    6.0754 H       1  UNL1        0.0618
     29 H           6.6911   -4.8623    4.3830 H       1  UNL1        0.0624
     30 H           3.7965   -5.5871   -1.3505 H       1  UNL1        0.0639
     31 H           1.8915   -5.5082   -2.9201 H       1  UNL1        0.0618
     32 H           0.5497   -3.4262   -3.1274 H       1  UNL1        0.0618
     33 H           1.1127   -1.4682   -1.7781 H       1  UNL1        0.0624
     34 H           4.2673    0.8701    0.2054 H       1  UNL1        0.2954
@<TRIPOS>BOND
     1     2     1    1
     2     3     2    2
     3     4     2    1
     4     5     4   ar
     5     5    23    1
     6     6     5   ar
     7     7     6    1
     8     7    24    1
     9     8     7    2
    10     8    25    1
    11     9     8    1
    12    10     9   ar
    13    11    10    1
    14    12    10   ar
    15    12    26    1
    16    13    12   ar
    17    13    27    1
    18    14    13   ar
    19    14    28    1
    20    15    14   ar
    21    15     9   ar
    22    15    29    1
    23    16     6   ar
    24    17    16   ar
    25    18    17   ar
    26    18    30    1
    27    19    18   ar
    28    19    31    1
    29    20    19   ar
    30    20    32    1
    31    21    20   ar
    32    21    33    1
    33    22    21   ar
    34    22     4   ar
    35    22    17   ar
    36     1    34    1
@<TRIPOS>MOLECULE
mol_137_akc_jhet4217
>134.sdf
 34 36 0 0 0
SMALL
GASTEIGER

@<TRIPOS>ATOM
      1 O           3.2492   -0.7207   -0.7167 O.3     1  UNL1       -0.4771
      2 C           2.4380   -0.0488    0.1315 C.2     1  UNL1        0.3375
      3 O           1.2456   -0.2811    0.2179 O.2     1  UNL1       -0.2451
      4 C           3.1425    0.9943    0.9230 C.ar    1  UNL1        0.0700
      5 C           4.1156    1.7575    0.2729 C.ar    1  UNL1       -0.0217
      6 C           4.7763    2.7336    0.9918 C.ar    1  UNL1        0.0654
      7 C           5.8342    3.5165    0.3401 C.2     1  UNL1       -0.0357
      8 C           6.5239    4.5039    0.9339 C.2     1  UNL1       -0.0526
      9 C           7.5841    5.2756    0.2598 C.ar    1  UNL1       -0.0249
     10 C           7.5622    5.5298   -1.1183 C.ar    1  UNL1       -0.0532
     11 C           8.5783    6.2817   -1.7201 C.ar    1  UNL1       -0.0428
     12 C           9.6069    6.8008   -0.9418 C.ar    1  UNL1        0.0410
     13 CL         10.8542    7.7266   -1.6832 Cl      1  UNL1       -0.0835
     14 C           9.6338    6.5755    0.4323 C.ar    1  UNL1       -0.0428
     15 C           8.6195    5.8186    1.0312 C.ar    1  UNL1       -0.0532
     16 N           4.4953    2.9962    2.2824 N.ar    1  UNL1       -0.2472
     17 C           3.5356    2.2916    2.9041 C.ar    1  UNL1        0.0724
     18 C           3.2550    2.6093    4.2262 C.ar    1  UNL1       -0.0357
     19 C           2.2849    1.9280    4.9627 C.ar    1  UNL1       -0.0597
     20 C           1.5759    0.8960    4.3674 C.ar    1  UNL1       -0.0611
     21 C           1.8379    0.5584    3.0402 C.ar    1  UNL1       -0.0518
     22 C           2.8142    1.2532    2.2779 C.ar    1  UNL1        0.0144
     23 H           4.3358    1.6114   -0.7790 H       1  UNL1        0.0647
     24 H           6.0503    3.2403   -0.6867 H       1  UNL1        0.0639
     25 H           6.3306    4.7600    1.9727 H       1  UNL1        0.0624
     26 H           6.7571    5.1632   -1.7493 H       1  UNL1        0.0624
     27 H           8.5487    6.4630   -2.7910 H       1  UNL1        0.0632
     28 H          10.4330    6.9851    1.0425 H       1  UNL1        0.0632
     29 H           8.6552    5.6524    2.1068 H       1  UNL1        0.0624
     30 H           3.8086    3.4176    4.7007 H       1  UNL1        0.0639
     31 H           2.0897    2.2057    5.9951 H       1  UNL1        0.0618
     32 H           0.8170    0.3564    4.9289 H       1  UNL1        0.0618
     33 H           1.2596   -0.2539    2.6030 H       1  UNL1        0.0624
     34 H           4.2061   -0.5716   -0.6073 H       1  UNL1        0.2954
@<TRIPOS>BOND
     1     2     1    1
     2     3     2    2
     3     4     2    1
     4     5     4   ar
     5     5    23    1
     6     6     5   ar
     7     7     6    1
     8     7    24    1
     9     8     7    2
    10     8    25    1
    11     9     8    1
    12    10     9   ar
    13    10    26    1
    14    11    10   ar
    15    11    27    1
    16    12    11   ar
    17    13    12    1
    18    14    12   ar
    19    14    28    1
    20    15    14   ar
    21    15     9   ar
    22    15    29    1
    23    16     6   ar
    24    17    16   ar
    25    18    17   ar
    26    18    30    1
    27    19    18   ar
    28    19    31    1
    29    20    19   ar
    30    20    32    1
    31    21    20   ar
    32    21    33    1
    33    22    21   ar
    34    22     4   ar
    35    22    17   ar
    36     1    34    1
@<TRIPOS>MOLECULE
mol_138_akc_jejmech2020113101
>135.sdf
 31 33 0 0 0
SMALL
GASTEIGER

@<TRIPOS>ATOM
      1 O           1.1174   -0.2998   -0.6798 O.3     1  UNL1       -0.3924
      2 C           2.2839   -0.2402    0.1365 C.3     1  UNL1        0.0729
      3 C           3.2002   -1.4251   -0.1774 C.3     1  UNL1        0.1109
      4 O           4.3577   -1.3924    0.6728 O.3     1  UNL1       -0.3595
      5 C           4.1791   -2.3605    1.7454 C.3     1  UNL1        0.1330
      6 C           2.8233   -3.0554    1.5197 C.3     1  UNL1        0.1153
      7 O           2.8368   -4.4624    1.7801 O.3     1  UNL1       -0.3862
      8 C           2.5258   -2.7720    0.0570 C.3     1  UNL1        0.1120
      9 O           3.1313   -3.8089   -0.7388 O.3     1  UNL1       -0.3865
     10 C           4.2548   -1.6854    3.0879 C.ar    1  UNL1        0.1201
     11 N           3.3455   -0.7521    3.4604 N.ar    1  UNL1       -0.1732
     12 N           3.7365   -0.3836    4.7020 N.ar    1  UNL1       -0.2701
     13 C           4.8500   -1.0325    5.1209 C.ar    1  UNL1        0.1487
     14 C           5.2045   -1.8711    4.1088 C.ar    1  UNL1        0.1210
     15 N           6.3225   -2.7074    4.1745 N.ar    1  UNL1       -0.2337
     16 C           6.9742   -2.5904    5.2923 C.ar    1  UNL1        0.0968
     17 N           6.6590   -1.7592    6.3486 N.ar    1  UNL1       -0.3117
     18 C           5.5666   -0.9198    6.3385 C.ar    1  UNL1        0.2768
     19 O           5.2740   -0.1837    7.2674 O.2     1  UNL1       -0.2655
     20 H           0.3477   -0.2552   -0.0849 H       1  UNL1        0.2095
     21 H           2.8054    0.7014   -0.0681 H       1  UNL1        0.0584
     22 H           1.9869   -0.2147    1.1887 H       1  UNL1        0.0584
     23 H           3.5443   -1.3446   -1.2148 H       1  UNL1        0.0646
     24 H           5.0001   -3.0822    1.6537 H       1  UNL1        0.0690
     25 H           2.0385   -2.6184    2.1457 H       1  UNL1        0.0650
     26 H           2.9362   -4.8850    0.9005 H       1  UNL1        0.2100
     27 H           1.4540   -2.7909   -0.1604 H       1  UNL1        0.0647
     28 H           3.0527   -3.5274   -1.6699 H       1  UNL1        0.2100
     29 H           3.1969    0.3156    5.2004 H       1  UNL1        0.1892
     30 H           7.8805   -3.1910    5.4739 H       1  UNL1        0.1028
     31 H           7.2289   -1.7404    7.1807 H       1  UNL1        0.1698
@<TRIPOS>BOND
     1     1    20    1
     2     2     1    1
     3     2    21    1
     4     2    22    1
     5     3     2    1
     6     3    23    1
     7     4     3    1
     8     5     4    1
     9     5    24    1
    10     6     5    1
    11     6    25    1
    12     7     6    1
    13     7    26    1
    14     8     6    1
    15     8     3    1
    16     8    27    1
    17     9     8    1
    18     9    28    1
    19    10     5    1
    20    11    10   ar
    21    12    11   ar
    22    12    29    1
    23    13    12   ar
    24    14    13   ar
    25    14    10   ar
    26    15    14   ar
    27    16    15   ar
    28    16    30    1
    29    17    16   ar
    30    17    31    1
    31    18    17   ar
    32    18    13   ar
    33    19    18    2
@<TRIPOS>MOLECULE
mol_139_akc_jjddst2020101988
>136.sdf
 50 51 0 0 0
SMALL
GASTEIGER

@<TRIPOS>ATOM
      1 C           5.0094   -2.9552   -0.0873 C.3     1  UNL1       -0.0408
      2 N           4.4222   -1.5346   -0.0856 N.4     1  UNL1        0.2460
      3 C           5.0163   -0.7626   -1.2617 C.3     1  UNL1       -0.0408
      4 C           2.8790   -1.5727   -0.1380 C.3     1  UNL1        0.0208
      5 I           2.0541   -2.5555   -1.8221 I       1  UNL1       -0.0277
      6 C           4.8781   -0.8953    1.2479 C.3     1  UNL1       -0.0299
      7 C           4.4209    0.5544    1.4542 C.3     1  UNL1       -0.0122
      8 C           4.9688    1.1533    2.7620 C.3     1  UNL1       -0.0448
      9 C           6.4983    1.2099    2.7596 C.3     1  UNL1       -0.0337
     10 C           7.1086    1.7519    4.0170 C.2     1  UNL1       -0.0757
     11 C           8.4436    1.8141    4.2246 C.2     1  UNL1       -0.0147
     12 C           9.3899    1.3883    3.1697 C.ar    1  UNL1       -0.0176
     13 C           9.8103    2.2949    2.1883 C.ar    1  UNL1       -0.0540
     14 C          10.7279    1.9001    1.2131 C.ar    1  UNL1       -0.0612
     15 C          11.2297    0.5990    1.2129 C.ar    1  UNL1       -0.0617
     16 C          10.8138   -0.3100    2.1849 C.ar    1  UNL1       -0.0612
     17 C           9.8960    0.0821    3.1605 C.ar    1  UNL1       -0.0540
     18 C           8.9201    2.2862    5.5374 C.ar    1  UNL1       -0.0176
     19 C           9.1311    1.3704    6.5758 C.ar    1  UNL1       -0.0540
     20 C           9.6821    1.7972    7.7846 C.ar    1  UNL1       -0.0612
     21 C          10.0164    3.1388    7.9600 C.ar    1  UNL1       -0.0617
     22 C           9.7881    4.0584    6.9368 C.ar    1  UNL1       -0.0612
     23 C           9.2383    3.6344    5.7263 C.ar    1  UNL1       -0.0540
     24 H           4.8138   -3.4342   -1.0481 H       1  UNL1        0.0778
     25 H           6.0923   -2.8791    0.0584 H       1  UNL1        0.0778
     26 H           4.5548   -3.5176    0.7336 H       1  UNL1        0.0778
     27 H           4.8817   -1.3418   -2.1783 H       1  UNL1        0.0778
     28 H           4.5089    0.2013   -1.3468 H       1  UNL1        0.0778
     29 H           6.0859   -0.6211   -1.0763 H       1  UNL1        0.0778
     30 H           2.5478   -2.0518    0.7901 H       1  UNL1        0.0930
     31 H           2.5355   -0.5345   -0.1331 H       1  UNL1        0.0930
     32 H           4.4984   -1.5319    2.0562 H       1  UNL1        0.0815
     33 H           5.9692   -0.9653    1.2392 H       1  UNL1        0.0815
     34 H           4.7420    1.1889    0.6217 H       1  UNL1        0.0317
     35 H           3.3283    0.6082    1.4997 H       1  UNL1        0.0317
     36 H           4.5647    2.1668    2.8806 H       1  UNL1        0.0270
     37 H           4.6077    0.5655    3.6148 H       1  UNL1        0.0270
     38 H           6.8867    0.1947    2.6362 H       1  UNL1        0.0308
     39 H           6.8221    1.8088    1.9006 H       1  UNL1        0.0308
     40 H           6.4335    2.0730    4.8091 H       1  UNL1        0.0578
     41 H           9.4427    3.3183    2.1933 H       1  UNL1        0.0624
     42 H          11.0697    2.6146    0.4682 H       1  UNL1        0.0618
     43 H          11.9639    0.3009    0.4681 H       1  UNL1        0.0618
     44 H          11.2249   -1.3163    2.1985 H       1  UNL1        0.0618
     45 H           9.5959   -0.6268    3.9277 H       1  UNL1        0.0624
     46 H           8.8941    0.3187    6.4413 H       1  UNL1        0.0624
     47 H           9.8669    1.0814    8.5808 H       1  UNL1        0.0618
     48 H          10.4660    3.4677    8.8940 H       1  UNL1        0.0618
     49 H          10.0548    5.1025    7.0750 H       1  UNL1        0.0618
     50 H           9.0839    4.3550    4.9276 H       1  UNL1        0.0624
@<TRIPOS>UNITY_ATOM_ATTR
2 1
charge 1
@<TRIPOS>BOND
     1     1    24    1
     2     1    25    1
     3     1    26    1
     4     2     1    1
     5     3     2    1
     6     3    27    1
     7     3    28    1
     8     3    29    1
     9     4     2    1
    10     4    30    1
    11     4    31    1
    12     5     4    1
    13     6     2    1
    14     6    32    1
    15     6    33    1
    16     7     6    1
    17     7    34    1
    18     7    35    1
    19     8     7    1
    20     8    36    1
    21     8    37    1
    22     9     8    1
    23     9    38    1
    24     9    39    1
    25    10     9    1
    26    10    40    1
    27    11    10    2
    28    12    11    1
    29    13    12   ar
    30    13    41    1
    31    14    13   ar
    32    14    42    1
    33    15    14   ar
    34    15    43    1
    35    16    15   ar
    36    16    44    1
    37    17    16   ar
    38    17    12   ar
    39    17    45    1
    40    18    11    1
    41    19    18   ar
    42    19    46    1
    43    20    19   ar
    44    20    47    1
    45    21    20   ar
    46    21    48    1
    47    22    21   ar
    48    22    49    1
    49    23    22   ar
    50    23    18   ar
    51    23    50    1
@<TRIPOS>MOLECULE
mol_13_akc_aac375991
>13.sdf
 54 57 0 0 0
SMALL
GASTEIGER

@<TRIPOS>ATOM
      1 C           3.1858    0.8490   -1.0603 C.3     1  UNL1        0.0004
      2 N           2.4962    0.0293   -0.0779 N.pl3   1  UNL1       -0.3360
      3 C           1.0527   -0.0953   -0.1783 C.3     1  UNL1        0.0004
      4 C           3.1357   -0.4296    1.0580 C.ar    1  UNL1        0.0298
      5 C           4.1920    0.2501    1.6823 C.ar    1  UNL1       -0.0329
      6 C           4.8182   -0.2209    2.8647 C.ar    1  UNL1       -0.0138
      7 C           5.8574    0.5134    3.4570 C.ar    1  UNL1       -0.0461
      8 C           6.4995    0.0952    4.6338 C.ar    1  UNL1       -0.0138
      9 C           6.0765   -1.0877    5.2683 C.ar    1  UNL1        0.0040
     10 C           6.7451   -1.4279    6.4604 C.ar    1  UNL1       -0.0505
     11 C           7.7946   -0.6473    6.9793 C.ar    1  UNL1       -0.0400
     12 C           8.2384    0.5295    6.3602 C.ar    1  UNL1        0.0298
     13 C           7.5557    0.8678    5.1816 C.ar    1  UNL1       -0.0329
     14 N           9.2764    1.2883    6.8838 N.pl3   1  UNL1       -0.3360
     15 C           9.7651    2.5342    6.3033 C.3     1  UNL1        0.0004
     16 C           9.9231    0.8978    8.1344 C.3     1  UNL1        0.0004
     17 C           5.0037   -1.8467    4.6971 C.ar    1  UNL1        0.0469
     18 N           4.5586   -3.0134    5.4120 N.pl3   1  UNL1       -0.3135
     19 C           3.2694   -3.5880    5.4624 C.ar    1  UNL1        0.0314
     20 C           3.1201   -4.9787    5.4183 C.ar    1  UNL1       -0.0388
     21 C           1.8581   -5.5532    5.2124 C.ar    1  UNL1       -0.0393
     22 C           0.7181   -4.7566    5.0826 C.ar    1  UNL1        0.0247
     23 N          -0.4878   -5.3139    4.6414 N.pl3   1  UNL1       -0.3580
     24 C           0.8646   -3.3718    5.1493 C.ar    1  UNL1       -0.0393
     25 C           2.1145   -2.7968    5.4010 C.ar    1  UNL1       -0.0388
     26 C           4.4084   -1.4306    3.4546 C.ar    1  UNL1        0.0040
     27 C           3.4278   -2.1544    2.7391 C.ar    1  UNL1       -0.0505
     28 C           2.7673   -1.6441    1.6216 C.ar    1  UNL1       -0.0400
     29 H           2.9537    0.4755   -2.0666 H       1  UNL1        0.0428
     30 H           2.8567    1.8924   -0.9946 H       1  UNL1        0.0428
     31 H           4.2735    0.8144   -0.9636 H       1  UNL1        0.0428
     32 H           0.7380   -1.1384   -0.2681 H       1  UNL1        0.0428
     33 H           0.5563    0.3544    0.6903 H       1  UNL1        0.0428
     34 H           0.6706    0.4248   -1.0703 H       1  UNL1        0.0428
     35 H           4.5229    1.1988    1.2693 H       1  UNL1        0.0642
     36 H           6.1782    1.4407    2.9838 H       1  UNL1        0.0630
     37 H           6.4535   -2.3171    7.0184 H       1  UNL1        0.0625
     38 H           8.2503   -0.9989    7.9006 H       1  UNL1        0.0636
     39 H           7.8236    1.7683    4.6401 H       1  UNL1        0.0642
     40 H           9.6185    3.3567    7.0130 H       1  UNL1        0.0428
     41 H          10.8400    2.4509    6.1037 H       1  UNL1        0.0428
     42 H           9.2968    2.8350    5.3650 H       1  UNL1        0.0428
     43 H           9.2027    0.8755    8.9591 H       1  UNL1        0.0428
     44 H          10.4035   -0.0830    8.0379 H       1  UNL1        0.0428
     45 H          10.7076    1.6090    8.4172 H       1  UNL1        0.0428
     46 H           5.3152   -3.6822    5.5103 H       1  UNL1        0.1522
     47 H           3.9886   -5.6293    5.4633 H       1  UNL1        0.0637
     48 H           1.7829   -6.6322    5.1055 H       1  UNL1        0.0636
     49 H          -1.3003   -4.7361    4.8316 H       1  UNL1        0.1423
     50 H          -0.6230   -6.2795    4.9215 H       1  UNL1        0.1423
     51 H           0.0190   -2.7172    4.9571 H       1  UNL1        0.0636
     52 H           2.1982   -1.7122    5.4213 H       1  UNL1        0.0637
     53 H           3.1348   -3.1518    3.0439 H       1  UNL1        0.0625
     54 H           1.9804   -2.2504    1.1856 H       1  UNL1        0.0636
@<TRIPOS>BOND
     1     1    29    1
     2     1    30    1
     3     1    31    1
     4     2     1    1
     5     3     2    1
     6     3    32    1
     7     3    33    1
     8     3    34    1
     9     4     2    1
    10     5     4   ar
    11     5    35    1
    12     6     5   ar
    13     7     6   ar
    14     7    36    1
    15     8     7   ar
    16     9     8   ar
    17    10     9   ar
    18    10    37    1
    19    11    10   ar
    20    11    38    1
    21    12    11   ar
    22    13    12   ar
    23    13     8   ar
    24    13    39    1
    25    14    12    1
    26    15    14    1
    27    15    40    1
    28    15    41    1
    29    15    42    1
    30    16    14    1
    31    16    43    1
    32    16    44    1
    33    16    45    1
    34    17     9   ar
    35    18    17    1
    36    18    46    1
    37    19    18    1
    38    20    19   ar
    39    20    47    1
    40    21    20   ar
    41    21    48    1
    42    22    21   ar
    43    23    22    1
    44    23    49    1
    45    23    50    1
    46    24    22   ar
    47    24    51    1
    48    25    24   ar
    49    25    19   ar
    50    25    52    1
    51    26    17   ar
    52    26     6   ar
    53    27    26   ar
    54    27    53    1
    55    28    27   ar
    56    28     4   ar
    57    28    54    1
@<TRIPOS>MOLECULE
mol_140_akc_fchem2020624678
>137.sdf
 30 31 0 0 0
SMALL
GASTEIGER

@<TRIPOS>ATOM
      1 BR         -1.3045    0.2114    1.8588 Br      1  UNL1       -0.0503
      2 C           0.4985    0.1168    1.3007 C.ar    1  UNL1        0.0179
      3 C           0.9811   -1.0517    0.7128 C.ar    1  UNL1       -0.0471
      4 C           2.3192   -1.1313    0.3087 C.ar    1  UNL1       -0.0499
      5 C           3.1787   -0.0422    0.5021 C.ar    1  UNL1        0.0217
      6 C           2.6715    1.1364    1.0727 C.ar    1  UNL1       -0.0499
      7 C           1.3360    1.2150    1.4769 C.ar    1  UNL1       -0.0471
      8 C           4.6247   -0.0619    0.1391 C.2     1  UNL1        0.1861
      9 O           5.2085    0.9921   -0.0951 O.2     1  UNL1       -0.2873
     10 C           5.3438   -1.3656    0.1298 C.2     1  UNL1       -0.0138
     11 C           6.6849   -1.3717    0.1214 C.2     1  UNL1       -0.0510
     12 C           7.4440   -2.6208    0.1133 C.ar    1  UNL1       -0.0248
     13 C           7.8334   -3.1866   -1.1054 C.ar    1  UNL1       -0.0524
     14 C           8.5519   -4.3846   -1.1333 C.ar    1  UNL1       -0.0309
     15 C           8.8815   -5.0187    0.0714 C.ar    1  UNL1        0.1262
     16 C           8.4968   -4.4600    1.2985 C.ar    1  UNL1       -0.0309
     17 C           7.7769   -3.2610    1.3154 C.ar    1  UNL1       -0.0524
     18 N           9.6352   -6.2787    0.0481 N.pl3   1  UNL1        0.0564
     19 O           9.9480   -6.7428   -1.0586 O.2     1  UNL1       -0.1261
     20 O           9.9084   -6.8076    1.1346 O.2     1  UNL1       -0.1261
     21 H           0.3236   -1.9048    0.5625 H       1  UNL1        0.0629
     22 H           2.6542   -2.0469   -0.1683 H       1  UNL1        0.0625
     23 H           3.3216    1.9989    1.2153 H       1  UNL1        0.0625
     24 H           0.9654    2.1323    1.9274 H       1  UNL1        0.0629
     25 H           4.7836   -2.2898    0.1567 H       1  UNL1        0.0656
     26 H           7.2652   -0.4512    0.1171 H       1  UNL1        0.0625
     27 H           7.5807   -2.6939   -2.0433 H       1  UNL1        0.0624
     28 H           8.8450   -4.8046   -2.0940 H       1  UNL1        0.0640
     29 H           8.7487   -4.9402    2.2417 H       1  UNL1        0.0640
     30 H           7.4827   -2.8278    2.2693 H       1  UNL1        0.0624
@<TRIPOS>BOND
     1     2     1    1
     2     3     2   ar
     3     3    21    1
     4     4     3   ar
     5     4    22    1
     6     5     4   ar
     7     6     5   ar
     8     6    23    1
     9     7     6   ar
    10     7     2   ar
    11     7    24    1
    12     8     5    1
    13     9     8    2
    14    10     8    1
    15    10    25    1
    16    11    10    2
    17    11    26    1
    18    12    11    1
    19    13    12   ar
    20    13    27    1
    21    14    13   ar
    22    14    28    1
    23    15    14   ar
    24    16    15   ar
    25    16    29    1
    26    17    16   ar
    27    17    12   ar
    28    17    30    1
    29    18    15    1
    30    19    18    2
    31    20    18    2
@<TRIPOS>MOLECULE
mol_141_akc_acsinfecdis0c00546
>138.sdf
 51 53 0 0 0
SMALL
GASTEIGER

@<TRIPOS>ATOM
      1 C          -5.4296   -4.8475    4.3742 C.3     1  UNL1       -0.0428
      2 N          -5.2110   -6.1458    3.6611 N.4     1  UNL1        0.2353
      3 C          -6.4251   -7.0354    3.6618 C.3     1  UNL1       -0.0317
      4 C          -6.0667   -8.0778    2.6298 C.3     1  UNL1       -0.0074
      5 C          -5.2901   -7.3246    1.5583 C.3     1  UNL1       -0.0048
      6 C          -4.8091   -6.0135    2.1938 C.3     1  UNL1       -0.0188
      7 C          -3.3052   -5.7641    2.0904 C.3     1  UNL1        0.0138
      8 C          -2.8158   -5.6203    0.6494 C.3     1  UNL1        0.0543
      9 O          -3.5937   -4.6134    0.0119 O.3     1  UNL1       -0.3642
     10 C          -3.2740   -4.3087   -1.3829 C.3     1  UNL1        0.1165
     11 C          -1.7963   -3.8417   -1.4416 C.3     1  UNL1       -0.0274
     12 C          -4.1917   -3.1213   -1.7851 C.ar    1  UNL1       -0.0117
     13 C          -5.3891   -2.8566   -1.0891 C.ar    1  UNL1       -0.0555
     14 C          -6.2066   -1.7746   -1.4252 C.ar    1  UNL1       -0.0614
     15 C          -5.8449   -0.9256   -2.4654 C.ar    1  UNL1       -0.0617
     16 C          -4.6819   -1.1759   -3.1845 C.ar    1  UNL1       -0.0614
     17 C          -3.8741   -2.2711   -2.8613 C.ar    1  UNL1       -0.0555
     18 C          -3.5862   -5.5563   -2.2365 C.ar    1  UNL1       -0.0116
     19 C          -2.6271   -6.1661   -3.0670 C.ar    1  UNL1       -0.0541
     20 C          -2.9171   -7.3468   -3.7619 C.ar    1  UNL1       -0.0430
     21 C          -4.1706   -7.9338   -3.6425 C.ar    1  UNL1        0.0410
     22 CL         -4.5117   -9.4071   -4.4638 Cl      1  UNL1       -0.0835
     23 C          -5.1482   -7.3412   -2.8520 C.ar    1  UNL1       -0.0430
     24 C          -4.8583   -6.1622   -2.1602 C.ar    1  UNL1       -0.0541
     25 H          -5.7225   -5.0776    5.4022 H       1  UNL1        0.0778
     26 H          -4.4892   -4.2924    4.3722 H       1  UNL1        0.0778
     27 H          -6.2162   -4.2889    3.8610 H       1  UNL1        0.0778
     28 H          -4.4635   -6.6500    4.1573 H       1  UNL1        0.2033
     29 H          -6.5636   -7.4422    4.6671 H       1  UNL1        0.0814
     30 H          -7.2887   -6.4339    3.3578 H       1  UNL1        0.0814
     31 H          -5.4236   -8.8440    3.0803 H       1  UNL1        0.0319
     32 H          -6.9492   -8.5825    2.2261 H       1  UNL1        0.0319
     33 H          -4.4716   -7.9453    1.1803 H       1  UNL1        0.0322
     34 H          -5.9417   -7.1003    0.7061 H       1  UNL1        0.0322
     35 H          -5.3863   -5.1732    1.7892 H       1  UNL1        0.0852
     36 H          -3.0678   -4.8339    2.6207 H       1  UNL1        0.0342
     37 H          -2.7427   -6.5667    2.5831 H       1  UNL1        0.0342
     38 H          -1.7610   -5.3342    0.6888 H       1  UNL1        0.0562
     39 H          -2.9015   -6.5740    0.1217 H       1  UNL1        0.0562
     40 H          -1.0982   -4.6329   -1.1495 H       1  UNL1        0.0264
     41 H          -1.4821   -3.5247   -2.4410 H       1  UNL1        0.0264
     42 H          -1.6277   -3.0054   -0.7513 H       1  UNL1        0.0264
     43 H          -5.7017   -3.4961   -0.2686 H       1  UNL1        0.0621
     44 H          -7.1251   -1.5904   -0.8745 H       1  UNL1        0.0618
     45 H          -6.4710   -0.0741   -2.7206 H       1  UNL1        0.0618
     46 H          -4.3998   -0.5168   -4.0033 H       1  UNL1        0.0618
     47 H          -2.9887   -2.4343   -3.4698 H       1  UNL1        0.0621
     48 H          -1.6306   -5.7469   -3.1908 H       1  UNL1        0.0622
     49 H          -2.1550   -7.8036   -4.3899 H       1  UNL1        0.0632
     50 H          -6.1348   -7.7898   -2.7711 H       1  UNL1        0.0632
     51 H          -5.6393   -5.7168   -1.5493 H       1  UNL1        0.0622
@<TRIPOS>UNITY_ATOM_ATTR
2 1
charge 1
@<TRIPOS>BOND
     1     1    25    1
     2     1    26    1
     3     1    27    1
     4     2     1    1
     5     2    28    1
     6     3     2    1
     7     3    29    1
     8     3    30    1
     9     4     3    1
    10     4    31    1
    11     4    32    1
    12     5     4    1
    13     5    33    1
    14     5    34    1
    15     6     5    1
    16     6     2    1
    17     6    35    1
    18     7     6    1
    19     7    36    1
    20     7    37    1
    21     8     7    1
    22     8    38    1
    23     8    39    1
    24     9     8    1
    25    11    40    1
    26    11    41    1
    27    11    42    1
    28    12    10    1
    29    13    12   ar
    30    13    43    1
    31    14    13   ar
    32    14    44    1
    33    15    14   ar
    34    15    45    1
    35    16    15   ar
    36    16    46    1
    37    17    16   ar
    38    17    12   ar
    39    17    47    1
    40    18    10    1
    41    19    18   ar
    42    19    48    1
    43    20    19   ar
    44    20    49    1
    45    21    20   ar
    46    22    21    1
    47    23    21   ar
    48    23    50    1
    49    24    23   ar
    50    24    18   ar
    51    24    51    1
    52    10    11    1
    53    10     9    1
@<TRIPOS>MOLECULE
mol_142_akc_1040663820212014532
>139.sdf
 47 50 0 0 0
SMALL
GASTEIGER

@<TRIPOS>ATOM
      1 O           6.6753    3.2481    0.0848 O.3     1  UNL1       -0.3940
      2 C           5.4370    3.6025   -0.5225 C.3     1  UNL1        0.0573
      3 C           4.2477    2.9134    0.1659 C.3     1  UNL1        0.0614
      4 C           4.2563    3.0963    1.7009 C.3     1  UNL1        0.0377
      5 N           4.1482    4.4778    2.1408 N.ar    1  UNL1       -0.3358
      6 C           2.9940    5.1474    2.4460 C.ar    1  UNL1        0.0240
      7 C           3.3882    6.4394    2.7015 C.ar    1  UNL1        0.0454
      8 N           4.7512    6.5521    2.6301 N.ar    1  UNL1       -0.2441
      9 C           5.1845    5.3494    2.3218 C.ar    1  UNL1        0.0959
     10 C           2.9184    3.3847   -0.4866 C.3     1  UNL1       -0.0121
     11 C           2.1855    2.1237   -0.8086 C.ar    1  UNL1       -0.0374
     12 C           2.9744    0.9852   -0.6783 C.ar    1  UNL1        0.0033
     13 C           2.4668   -0.2725   -0.9644 C.ar    1  UNL1       -0.0525
     14 C           1.1435   -0.3781   -1.3958 C.ar    1  UNL1       -0.0611
     15 C           0.3432    0.7665   -1.5248 C.ar    1  UNL1       -0.0615
     16 C           0.8665    2.0269   -1.2322 C.ar    1  UNL1       -0.0579
     17 C           4.2824    1.4091   -0.1573 C.2     1  UNL1        0.0977
     18 N           5.3597    0.7093    0.0523 N.2     1  UNL1       -0.0880
     19 O           5.2406   -0.5894   -0.4525 O.2     1  UNL1       -0.3887
     20 C           6.0770   -1.4951    0.2689 C.3     1  UNL1        0.1456
     21 C           6.3529   -2.6812   -0.6164 C.ar    1  UNL1        0.0275
     22 C           7.0446   -2.5177   -1.8284 C.ar    1  UNL1       -0.0498
     23 C           7.3033   -3.6176   -2.6489 C.ar    1  UNL1       -0.0259
     24 C           6.8712   -4.8817   -2.2604 C.ar    1  UNL1        0.1261
     25 F           7.1215   -5.9347   -3.0490 F       1  UNL1       -0.2054
     26 C           6.1843   -5.0673   -1.0693 C.ar    1  UNL1        0.0092
     27 C           5.9303   -3.9663   -0.2579 C.ar    1  UNL1        0.1326
     28 F           5.2647   -4.1548    0.8903 F       1  UNL1       -0.2050
     29 H           6.7735    2.2797   -0.0305 H       1  UNL1        0.2094
     30 H           5.3441    4.6923   -0.4672 H       1  UNL1        0.0567
     31 H           5.4969    3.3388   -1.5850 H       1  UNL1        0.0567
     32 H           3.4239    2.5493    2.1619 H       1  UNL1        0.0502
     33 H           5.1710    2.6888    2.1494 H       1  UNL1        0.0502
     34 H           2.0186    4.6823    2.4263 H       1  UNL1        0.0825
     35 H           2.7649    7.2921    2.9370 H       1  UNL1        0.0845
     36 H           6.2228    5.0681    2.1911 H       1  UNL1        0.1029
     37 H           2.3084    4.0092    0.1667 H       1  UNL1        0.0324
     38 H           3.0970    3.9386   -1.4155 H       1  UNL1        0.0324
     39 H           3.0564   -1.1753   -0.8556 H       1  UNL1        0.0624
     40 H           0.7279   -1.3562   -1.6279 H       1  UNL1        0.0618
     41 H          -0.6861    0.6676   -1.8529 H       1  UNL1        0.0618
     42 H           0.2447    2.9124   -1.3346 H       1  UNL1        0.0620
     43 H           7.0235   -1.0215    0.5536 H       1  UNL1        0.0776
     44 H           5.5464   -1.7895    1.1808 H       1  UNL1        0.0776
     45 H           7.3784   -1.5277   -2.1371 H       1  UNL1        0.0623
     46 H           7.8363   -3.4966   -3.5864 H       1  UNL1        0.0646
     47 H           5.8515   -6.0565   -0.7771 H       1  UNL1        0.0675
@<TRIPOS>BOND
     1     1    29    1
     2     2     1    1
     3     2    30    1
     4     2    31    1
     5     3     2    1
     6     4     3    1
     7     4    32    1
     8     4    33    1
     9     5     4    1
    10     6     5   ar
    11     6    34    1
    12     7     6   ar
    13     7    35    1
    14     8     7   ar
    15     9     8   ar
    16     9     5   ar
    17     9    36    1
    18    10     3    1
    19    10    37    1
    20    10    38    1
    21    11    10    1
    22    12    11   ar
    23    13    12   ar
    24    13    39    1
    25    14    13   ar
    26    14    40    1
    27    15    14   ar
    28    15    41    1
    29    16    15   ar
    30    16    11   ar
    31    16    42    1
    32    17    12    1
    33    17     3    1
    34    18    17    2
    35    19    18    1
    36    20    19    1
    37    20    43    1
    38    20    44    1
    39    21    20    1
    40    22    21   ar
    41    22    45    1
    42    23    22   ar
    43    23    46    1
    44    24    23   ar
    45    25    24    1
    46    26    24   ar
    47    26    47    1
    48    27    26   ar
    49    27    21   ar
    50    28    27    1
@<TRIPOS>MOLECULE
mol_143_akc_0739110220211973564
>140.sdf
 46 51 0 0 0
SMALL
GASTEIGER

@<TRIPOS>ATOM
      1 C           1.0404   -0.3481   -0.8246 C.3     1  UNL1        0.0820
      2 O           2.4684   -0.3117   -0.8157 O.3     1  UNL1       -0.4645
      3 C           2.9933    0.9307   -0.9674 C.2     1  UNL1        0.3390
      4 O           2.3532    1.9605   -1.1081 O.2     1  UNL1       -0.2450
      5 C           4.4829    0.8796   -0.9528 C.ar    1  UNL1        0.0603
      6 C           5.1898   -0.3228   -0.8040 C.ar    1  UNL1       -0.0380
      7 C           6.6042   -0.3914   -0.8127 C.ar    1  UNL1        0.0090
      8 C           7.2524    0.8568   -0.9682 C.ar    1  UNL1        0.0554
      9 N           8.5962    1.1578   -1.0179 N.ar    1  UNL1       -0.3536
     10 C           8.8233    2.5029   -1.1223 C.ar    1  UNL1        0.0475
     11 C           7.5754    3.1156   -1.1783 C.ar    1  UNL1        0.0074
     12 C           7.5285    4.5218   -1.2733 C.ar    1  UNL1       -0.0520
     13 C           8.7265    5.2499   -1.2979 C.ar    1  UNL1       -0.0611
     14 C           9.9573    4.6006   -1.2374 C.ar    1  UNL1       -0.0598
     15 C          10.0290    3.2091   -1.1506 C.ar    1  UNL1       -0.0378
     16 C           6.5863    2.0785   -1.0955 C.ar    1  UNL1        0.0088
     17 C           5.1782    2.0862   -1.0962 C.ar    1  UNL1       -0.0380
     18 C           7.3212   -1.6778   -0.6961 C.ar    1  UNL1        0.0140
     19 C           6.8087   -2.9015   -1.2234 C.ar    1  UNL1       -0.0440
     20 C           7.4430   -4.1797   -1.1352 C.ar    1  UNL1       -0.0151
     21 C           6.8502   -5.3280   -1.6821 C.ar    1  UNL1       -0.0539
     22 C           7.4767   -6.5787   -1.5997 C.ar    1  UNL1       -0.0612
     23 C           8.7141   -6.7133   -0.9697 C.ar    1  UNL1       -0.0611
     24 C           9.3311   -5.5985   -0.4140 C.ar    1  UNL1       -0.0519
     25 C           8.6977   -4.3430   -0.4946 C.ar    1  UNL1        0.0114
     26 C           9.2562   -3.1537    0.0482 C.ar    1  UNL1        0.1208
     27 N          10.4199   -2.9828    0.7055 N.ar    1  UNL1       -0.1542
     28 N          10.4019   -1.6825    0.9837 N.ar    1  UNL1       -0.1956
     29 N           9.3835   -0.9414    0.5472 N.ar    1  UNL1       -0.1542
     30 C           8.5793   -1.8463   -0.0506 C.ar    1  UNL1        0.1209
     31 H           0.6269    0.3207   -0.0630 H       1  UNL1        0.0661
     32 H           0.6618   -0.0873   -1.8179 H       1  UNL1        0.0661
     33 H           0.7271   -1.3697   -0.5913 H       1  UNL1        0.0661
     34 H           4.6254   -1.2435   -0.6661 H       1  UNL1        0.0632
     35 H           9.3210    0.4693   -0.8689 H       1  UNL1        0.1659
     36 H           6.5751    5.0405   -1.3105 H       1  UNL1        0.0624
     37 H           8.6925    6.3347   -1.3577 H       1  UNL1        0.0618
     38 H          10.8755    5.1827   -1.2528 H       1  UNL1        0.0618
     39 H          10.9862    2.7002   -1.0993 H       1  UNL1        0.0638
     40 H           4.6415    3.0262   -1.1985 H       1  UNL1        0.0632
     41 H           5.8555   -2.8630   -1.7561 H       1  UNL1        0.0630
     42 H           5.8853   -5.2645   -2.1816 H       1  UNL1        0.0624
     43 H           6.9942   -7.4526   -2.0308 H       1  UNL1        0.0618
     44 H           9.1951   -7.6860   -0.9128 H       1  UNL1        0.0618
     45 H          10.2964   -5.6949    0.0784 H       1  UNL1        0.0624
     46 H          11.1639   -1.2562    1.5067 H       1  UNL1        0.2125
@<TRIPOS>BOND
     1     1    31    1
     2     1    32    1
     3     1    33    1
     4     2     1    1
     5     3     2    1
     6     4     3    2
     7     5     3    1
     8     6     5   ar
     9     6    34    1
    10     7     6   ar
    11     8     7   ar
    12     9     8   ar
    13     9    35    1
    14    10     9   ar
    15    11    10   ar
    16    12    11   ar
    17    12    36    1
    18    13    12   ar
    19    13    37    1
    20    14    13   ar
    21    14    38    1
    22    15    14   ar
    23    15    10   ar
    24    15    39    1
    25    16    11   ar
    26    16     8   ar
    27    17    16   ar
    28    17     5   ar
    29    17    40    1
    30    18     7    1
    31    19    18   ar
    32    19    41    1
    33    20    19   ar
    34    21    20   ar
    35    21    42    1
    36    22    21   ar
    37    22    43    1
    38    23    22   ar
    39    23    44    1
    40    24    23   ar
    41    24    45    1
    42    25    24   ar
    43    25    20   ar
    44    26    25   ar
    45    27    26   ar
    46    28    27   ar
    47    28    46    1
    48    29    28   ar
    49    30    29   ar
    50    30    18   ar
    51    30    26   ar
@<TRIPOS>MOLECULE
mol_144_akc_biom11010056
>141.sdf
 91 96 0 0 0
SMALL
GASTEIGER

@<TRIPOS>ATOM
      1 C           4.7444    0.1427   -1.0483 C.3     1  UNL1       -0.0356
      2 C           5.4840    1.1850   -0.2451 C.2     1  UNL1        0.0022
      3 C           6.5019    0.9127    0.5843 C.2     1  UNL1        0.1671
      4 O           7.1623   -0.3060    0.5776 O.2     1  UNL1       -0.5030
      5 C           6.9369    1.9546    1.5775 C.2     1  UNL1        0.2206
      6 O           7.9366    1.8401    2.2640 O.2     1  UNL1       -0.2840
      7 C           6.0558    3.1552    1.7511 C.2     1  UNL1       -0.0067
      8 C           5.0938    3.4574    0.8521 C.2     1  UNL1       -0.0262
      9 C           5.0330    2.5705   -0.3179 C.2     1  UNL1       -0.0144
     10 C           4.6261    3.0727   -1.4915 C.2     1  UNL1       -0.0539
     11 C           3.9805    4.3429   -1.6075 C.2     1  UNL1       -0.0606
     12 C           3.5029    4.9664   -0.5141 C.2     1  UNL1       -0.0529
     13 C           4.1790    4.7205    0.8860 C.3     1  UNL1        0.0154
     14 C           5.0651    5.9511    1.2255 C.3     1  UNL1       -0.0517
     15 C           3.1510    4.5642    2.0542 C.3     1  UNL1       -0.0393
     16 C           1.8225    5.3006    1.8664 C.3     1  UNL1       -0.0455
     17 C           1.1854    5.0542    0.4699 C.3     1  UNL1       -0.0196
     18 C           1.1196    3.5015    0.2417 C.3     1  UNL1       -0.0585
     19 C          -0.3063    5.6127    0.4873 C.3     1  UNL1       -0.0285
     20 C          -1.3204    4.6817    1.2501 C.3     1  UNL1       -0.0355
     21 C          -2.5286    4.0314    0.5083 C.3     1  UNL1        0.0445
     22 C          -3.7987    4.4804    1.2705 C.3     1  UNL1       -0.0512
     23 C          -2.6270    4.4510   -0.9650 C.3     1  UNL1       -0.0388
     24 C          -2.3214    5.9219   -1.1541 C.3     1  UNL1       -0.0464
     25 C          -0.8496    6.2919   -0.8170 C.3     1  UNL1       -0.0286
     26 C          -0.9231    7.8303   -0.5526 C.3     1  UNL1       -0.0593
     27 C           0.0014    6.0479   -2.0960 C.3     1  UNL1       -0.0465
     28 C           1.4140    5.4849   -1.9734 C.3     1  UNL1       -0.0429
     29 C           2.1379    5.7086   -0.6166 C.3     1  UNL1       -0.0043
     30 C           2.4765    7.2115   -0.5468 C.3     1  UNL1       -0.0553
     31 C          -2.3654    2.4873    0.5069 C.2     1  UNL1        0.2191
     32 O          -1.3997    1.9245   -0.0056 O.2     1  UNL1       -0.2752
     33 N          -3.3187    1.7136    1.1412 N.am    1  UNL1       -0.3098
     34 C          -3.2322    0.2547    1.0132 C.3     1  UNL1        0.0517
     35 C          -2.0341   -0.3424    1.7834 C.3     1  UNL1       -0.0160
     36 N          -2.0239    0.2154    3.1875 N.4     1  UNL1        0.2363
     37 C          -3.1329   -0.2492    4.0855 C.3     1  UNL1       -0.0317
     38 C          -2.6794    0.2801    5.4252 C.3     1  UNL1       -0.0077
     39 C          -1.1805    0.0190    5.4269 C.3     1  UNL1       -0.0077
     40 C          -0.7494   -0.0037    3.9620 C.3     1  UNL1       -0.0317
     41 H           3.6585    0.2635   -0.9280 H       1  UNL1        0.0279
     42 H           4.9842    0.2087   -2.1117 H       1  UNL1        0.0279
     43 H           4.9704   -0.8744   -0.7123 H       1  UNL1        0.0279
     44 H           7.1912   -0.6045   -0.3476 H       1  UNL1        0.2923
     45 H           6.2802    3.7608    2.6163 H       1  UNL1        0.0660
     46 H           4.6304    2.4753   -2.3977 H       1  UNL1        0.0624
     47 H           3.6006    4.5284   -2.6085 H       1  UNL1        0.0618
     48 H           4.4950    6.8805    1.2735 H       1  UNL1        0.0241
     49 H           5.8668    6.0825    0.4910 H       1  UNL1        0.0241
     50 H           5.5406    5.8518    2.2105 H       1  UNL1        0.0241
     51 H           2.9316    3.5063    2.2374 H       1  UNL1        0.0277
     52 H           3.5876    4.9215    2.9988 H       1  UNL1        0.0277
     53 H           1.1370    4.9820    2.6621 H       1  UNL1        0.0271
     54 H           1.9669    6.3744    2.0383 H       1  UNL1        0.0271
     55 H           0.8140    2.9627    1.1445 H       1  UNL1        0.0235
     56 H           2.0713    3.0410   -0.0226 H       1  UNL1        0.0235
     57 H           0.4361    3.2580   -0.5720 H       1  UNL1        0.0235
     58 H          -0.2205    6.4516    1.1954 H       1  UNL1        0.0312
     59 H          -0.7989    3.9071    1.8197 H       1  UNL1        0.0278
     60 H          -1.7161    5.3070    2.0636 H       1  UNL1        0.0278
     61 H          -3.7985    4.0888    2.2956 H       1  UNL1        0.0240
     62 H          -3.8562    5.5720    1.3473 H       1  UNL1        0.0240
     63 H          -4.7171    4.1406    0.7812 H       1  UNL1        0.0240
     64 H          -3.6403    4.2481   -1.3387 H       1  UNL1        0.0275
     65 H          -1.9610    3.8558   -1.6010 H       1  UNL1        0.0275
     66 H          -2.5474    6.2013   -2.1929 H       1  UNL1        0.0271
     67 H          -3.0242    6.5061   -0.5488 H       1  UNL1        0.0271
     68 H          -1.1699    8.3875   -1.4627 H       1  UNL1        0.0235
     69 H          -1.6929    8.0622    0.1937 H       1  UNL1        0.0235
     70 H           0.0030    8.2360   -0.1459 H       1  UNL1        0.0235
     71 H           0.0726    6.9835   -2.6673 H       1  UNL1        0.0271
     72 H          -0.5295    5.3701   -2.7784 H       1  UNL1        0.0271
     73 H           2.0031    5.9120   -2.7975 H       1  UNL1        0.0274
     74 H           1.3528    4.4115   -2.2006 H       1  UNL1        0.0274
     75 H           2.6472    7.5848    0.4627 H       1  UNL1        0.0238
     76 H           3.3843    7.4246   -1.1303 H       1  UNL1        0.0238
     77 H           1.7205    7.8429   -1.0091 H       1  UNL1        0.0238
     78 H          -4.2536    2.1030    1.1917 H       1  UNL1        0.1489
     79 H          -4.1704   -0.1529    1.4031 H       1  UNL1        0.0515
     80 H          -3.1689   -0.0080   -0.0484 H       1  UNL1        0.0515
     81 H          -1.0797   -0.0553    1.3319 H       1  UNL1        0.0830
     82 H          -2.0840   -1.4339    1.8430 H       1  UNL1        0.0830
     83 H          -2.1290    1.2335    3.0589 H       1  UNL1        0.2034
     84 H          -3.1590   -1.3437    4.0531 H       1  UNL1        0.0814
     85 H          -4.0790    0.1799    3.7474 H       1  UNL1        0.0814
     86 H          -3.1941   -0.1997    6.2618 H       1  UNL1        0.0319
     87 H          -2.8710    1.3587    5.4842 H       1  UNL1        0.0319
     88 H          -0.6431    0.7828    5.9980 H       1  UNL1        0.0319
     89 H          -0.9629   -0.9486    5.8937 H       1  UNL1        0.0319
     90 H          -0.0533    0.7985    3.7018 H       1  UNL1        0.0814
     91 H          -0.3382   -0.9795    3.6832 H       1  UNL1        0.0814
@<TRIPOS>UNITY_ATOM_ATTR
36 1
charge 1
@<TRIPOS>BOND
     1     1    41    1
     2     1    42    1
     3     1    43    1
     4     2     1    1
     5     3     2    2
     6     4     3    1
     7     4    44    1
     8     5     3    1
     9     6     5    2
    10     7     5    1
    11     7    45    1
    12     8     7    2
    13     9     8    1
    14     9     2    1
    15    10     9    2
    16    10    46    1
    17    11    10    1
    18    11    47    1
    19    12    11    2
    20    13    12    1
    21    13     8    1
    22    13    14    1
    23    14    48    1
    24    14    49    1
    25    14    50    1
    26    15    13    1
    27    15    51    1
    28    15    52    1
    29    16    15    1
    30    16    53    1
    31    16    54    1
    32    17    16    1
    33    17    18    1
    34    18    55    1
    35    18    56    1
    36    18    57    1
    37    19    17    1
    38    19    58    1
    39    20    19    1
    40    20    59    1
    41    20    60    1
    42    21    20    1
    43    22    61    1
    44    22    62    1
    45    22    63    1
    46    23    21    1
    47    23    64    1
    48    23    65    1
    49    24    23    1
    50    24    66    1
    51    24    67    1
    52    25    24    1
    53    25    19    1
    54    25    26    1
    55    26    68    1
    56    26    69    1
    57    26    70    1
    58    27    25    1
    59    27    71    1
    60    27    72    1
    61    28    27    1
    62    28    73    1
    63    28    74    1
    64    29    28    1
    65    29    12    1
    66    29    17    1
    67    29    30    1
    68    30    75    1
    69    30    76    1
    70    30    77    1
    71    32    31    2
    72    33    31   am
    73    33    78    1
    74    34    33    1
    75    34    79    1
    76    34    80    1
    77    35    34    1
    78    35    81    1
    79    35    82    1
    80    36    35    1
    81    36    83    1
    82    37    36    1
    83    37    84    1
    84    37    85    1
    85    38    37    1
    86    38    86    1
    87    38    87    1
    88    39    38    1
    89    39    88    1
    90    39    89    1
    91    40    39    1
    92    40    36    1
    93    40    90    1
    94    40    91    1
    95    21    31    1
    96    21    22    1
@<TRIPOS>MOLECULE
mol_145_akc_cbdv202000839
>142.sdf
 45 48 0 0 0
SMALL
GASTEIGER

@<TRIPOS>ATOM
      1 C           9.0358    6.7543   -3.4431 C.3     1  UNL1        0.0790
      2 O           8.6166    7.3329   -2.2131 O.3     1  UNL1       -0.4914
      3 C           7.6771    6.6353   -1.4857 C.ar    1  UNL1        0.1632
      4 C           6.8992    7.3915   -0.5708 C.ar    1  UNL1        0.1798
      5 O           7.1252    8.7436   -0.6441 O.3     1  UNL1       -0.4901
      6 C           6.8430    9.5698    0.4711 C.3     1  UNL1        0.0790
      7 C           5.9474    6.7194    0.2103 C.ar    1  UNL1        0.0864
      8 CL          4.8617    7.4561    1.3373 Cl      1  UNL1       -0.0796
      9 C           5.7563    5.3404    0.0468 C.ar    1  UNL1       -0.0355
     10 C           6.4850    4.6020   -0.8964 C.ar    1  UNL1       -0.0295
     11 C           7.4901    5.2518   -1.6213 C.ar    1  UNL1       -0.0121
     12 C           6.0420    3.1684   -1.2144 C.3     1  UNL1        0.0562
     13 C           5.5750    3.0570   -2.6631 C.2     1  UNL1        0.0981
     14 C           4.8317    4.2890   -3.1533 C.1     1  UNL1        0.1008
     15 N           4.2151    5.3110   -3.5599 N.1     1  UNL1       -0.1910
     16 C           5.8764    2.0012   -3.4352 C.2     1  UNL1        0.1987
     17 N           5.4251    1.7900   -4.7087 N.pl3   1  UNL1       -0.3284
     18 O           6.7248    0.9980   -2.9576 O.2     1  UNL1       -0.4370
     19 C           7.3533    1.1315   -1.7203 C.2     1  UNL1        0.1848
     20 C           7.0552    2.1224   -0.8681 C.2     1  UNL1        0.0585
     21 C           7.6440    2.1693    0.4875 C.2     1  UNL1        0.1944
     22 O           7.1519    2.8348    1.3838 O.2     1  UNL1       -0.2868
     23 C           8.8475    1.3677    0.7263 C.ar    1  UNL1        0.0330
     24 C           9.1798    0.3345   -0.1439 C.ar    1  UNL1        0.0362
     25 C          10.2950   -0.4645    0.1360 C.ar    1  UNL1       -0.0501
     26 C          11.0819   -0.1942    1.2609 C.ar    1  UNL1       -0.0610
     27 C          10.7628    0.8665    2.1081 C.ar    1  UNL1       -0.0610
     28 C           9.6376    1.6452    1.8479 C.ar    1  UNL1       -0.0502
     29 C           8.3725    0.1005   -1.3619 C.2     1  UNL1        0.2291
     30 O           8.5743   -0.8792   -2.0703 O.2     1  UNL1       -0.2833
     31 H           9.6857    5.8913   -3.2659 H       1  UNL1        0.0660
     32 H           8.1805    6.4806   -4.0708 H       1  UNL1        0.0660
     33 H           9.6230    7.5015   -3.9850 H       1  UNL1        0.0660
     34 H           5.7738    9.7838    0.5446 H       1  UNL1        0.0660
     35 H           7.2499    9.1536    1.3976 H       1  UNL1        0.0660
     36 H           7.3324   10.5335    0.2985 H       1  UNL1        0.0660
     37 H           4.9883    4.8411    0.6380 H       1  UNL1        0.0636
     38 H           8.0771    4.6818   -2.3343 H       1  UNL1        0.0658
     39 H           5.1529    2.9503   -0.6025 H       1  UNL1        0.0457
     40 H           5.9752    1.1258   -5.2474 H       1  UNL1        0.1451
     41 H           5.0757    2.5884   -5.2308 H       1  UNL1        0.1451
     42 H          10.5579   -1.2921   -0.5195 H       1  UNL1        0.0625
     43 H          11.9519   -0.8125    1.4754 H       1  UNL1        0.0618
     44 H          11.3832    1.0854    2.9740 H       1  UNL1        0.0618
     45 H           9.3808    2.4684    2.5137 H       1  UNL1        0.0625
@<TRIPOS>BOND
     1     1    31    1
     2     1    32    1
     3     1    33    1
     4     2     1    1
     5     3     2    1
     6     4     3   ar
     7     5     4    1
     8     6     5    1
     9     6    34    1
    10     6    35    1
    11     6    36    1
    12     7     4   ar
    13     8     7    1
    14     9     7   ar
    15     9    37    1
    16    10     9   ar
    17    11    10   ar
    18    11     3   ar
    19    11    38    1
    20    13    12    1
    21    14    13    1
    22    15    14    3
    23    16    13    2
    24    17    16    1
    25    17    40    1
    26    17    41    1
    27    18    16    1
    28    19    18    1
    29    20    19    2
    30    20    12    1
    31    21    20    1
    32    22    21    2
    33    23    21    1
    34    24    23   ar
    35    25    24   ar
    36    25    42    1
    37    26    25   ar
    38    26    43    1
    39    27    26   ar
    40    27    44    1
    41    28    27   ar
    42    28    23   ar
    43    28    45    1
    44    29    24    1
    45    29    19    1
    46    30    29    2
    47    12    39    1
    48    12    10    1
@<TRIPOS>MOLECULE
mol_146_akc_cbdv202000839
>142_2.sdf
 45 48 0 0 0
SMALL
GASTEIGER

@<TRIPOS>ATOM
      1 C           3.2261   -0.6366    0.9690 C.3     1  UNL1        0.0790
      2 O           2.5100    0.2625    0.1289 O.3     1  UNL1       -0.4914
      3 C           3.2234    0.8371   -0.9016 C.ar    1  UNL1        0.1632
      4 C           2.7757    2.1010   -1.3620 C.ar    1  UNL1        0.1798
      5 O           1.6819    2.5592   -0.6743 O.3     1  UNL1       -0.4901
      6 C           1.0411    3.7706   -1.0238 C.3     1  UNL1        0.0790
      7 C           3.4916    2.7142   -2.4031 C.ar    1  UNL1        0.0864
      8 CL          3.1586    4.2714   -3.0810 Cl      1  UNL1       -0.0796
      9 C           4.6052    2.0700   -2.9714 C.ar    1  UNL1       -0.0355
     10 C           5.0322    0.8116   -2.5320 C.ar    1  UNL1       -0.0295
     11 C           4.3196    0.1975   -1.4956 C.ar    1  UNL1       -0.0121
     12 C           6.2787    0.1673   -3.1417 C.3     1  UNL1        0.0562
     13 C           5.9656   -1.1819   -3.7580 C.2     1  UNL1        0.0981
     14 C           5.1901   -1.1977   -4.9553 C.1     1  UNL1        0.1008
     15 N           4.5545   -1.2121   -5.9247 N.1     1  UNL1       -0.1910
     16 C           6.4374   -2.3248   -3.2160 C.2     1  UNL1        0.1987
     17 N           6.2209   -3.5923   -3.6957 N.pl3   1  UNL1       -0.3284
     18 O           7.2204   -2.3031   -2.0635 O.2     1  UNL1       -0.4370
     19 C           7.7712   -1.1068   -1.6214 C.2     1  UNL1        0.1848
     20 C           7.3838    0.0752   -2.1167 C.2     1  UNL1        0.0585
     21 C           8.0374    1.3365   -1.7036 C.2     1  UNL1        0.1944
     22 O           7.7457    2.4023   -2.2310 O.2     1  UNL1       -0.2868
     23 C           9.0747    1.2724   -0.6610 C.ar    1  UNL1        0.0330
     24 C           9.4454    0.0500   -0.1064 C.ar    1  UNL1        0.0362
     25 C          10.4432    0.0071    0.8766 C.ar    1  UNL1       -0.0501
     26 C          11.0658    1.1860    1.2934 C.ar    1  UNL1       -0.0610
     27 C          10.6934    2.4081    0.7361 C.ar    1  UNL1       -0.0610
     28 C           9.6975    2.4543   -0.2392 C.ar    1  UNL1       -0.0502
     29 C           8.8022   -1.2016   -0.5529 C.2     1  UNL1        0.2291
     30 O           9.1036   -2.2760   -0.0467 O.2     1  UNL1       -0.2833
     31 H           3.3611   -1.6047    0.4755 H       1  UNL1        0.0660
     32 H           4.1890   -0.2180    1.2819 H       1  UNL1        0.0660
     33 H           2.6278   -0.8067    1.8689 H       1  UNL1        0.0660
     34 H           1.6837    4.6296   -0.8095 H       1  UNL1        0.0660
     35 H           0.6857    3.7558   -2.0579 H       1  UNL1        0.0660
     36 H           0.1561    3.8722   -0.3875 H       1  UNL1        0.0660
     37 H           5.1637    2.5774   -3.7587 H       1  UNL1        0.0636
     38 H           4.6251   -0.7867   -1.1545 H       1  UNL1        0.0658
     39 H           6.6489    0.8024   -3.9608 H       1  UNL1        0.0457
     40 H           6.3181   -4.3113   -2.9831 H       1  UNL1        0.1451
     41 H           5.4084   -3.7187   -4.2957 H       1  UNL1        0.1451
     42 H          10.7432   -0.9424    1.3172 H       1  UNL1        0.0625
     43 H          11.8447    1.1499    2.0524 H       1  UNL1        0.0618
     44 H          11.1803    3.3266    1.0584 H       1  UNL1        0.0618
     45 H           9.4121    3.4133   -0.6704 H       1  UNL1        0.0625
@<TRIPOS>BOND
     1     1    31    1
     2     1    32    1
     3     1    33    1
     4     2     1    1
     5     3     2    1
     6     4     3   ar
     7     5     4    1
     8     6     5    1
     9     6    34    1
    10     6    35    1
    11     6    36    1
    12     7     4   ar
    13     8     7    1
    14     9     7   ar
    15     9    37    1
    16    10     9   ar
    17    11    10   ar
    18    11     3   ar
    19    11    38    1
    20    12    10    1
    21    12    39    1
    22    13    12    1
    23    14    13    1
    24    15    14    3
    25    16    13    2
    26    17    16    1
    27    17    40    1
    28    17    41    1
    29    18    16    1
    30    19    18    1
    31    20    19    2
    32    20    12    1
    33    21    20    1
    34    22    21    2
    35    23    21    1
    36    24    23   ar
    37    25    24   ar
    38    25    42    1
    39    26    25   ar
    40    26    43    1
    41    27    26   ar
    42    27    44    1
    43    28    27   ar
    44    28    23   ar
    45    28    45    1
    46    29    24    1
    47    29    19    1
    48    30    29    2
@<TRIPOS>MOLECULE
mol_147_akc_jbiopha2020111049
>143.sdf
 34 36 0 0 0
SMALL
GASTEIGER

@<TRIPOS>ATOM
      1 O          -2.7076    3.2827   -0.8546 O.3     1  UNL1        0.0000
      2 B          -1.5236    2.5320   -0.4418 B       1  UNL1        0.0000
      3 O          -0.1995    3.1427   -0.2234 O.3     1  UNL1        0.0000
      4 C           0.6233    2.0607    0.2044 C.3     1  UNL1        0.0000
      5 C          -0.2089    0.8140    0.2398 C.ar    1  UNL1        0.0000
      6 C           0.2036   -0.4601    0.6115 C.ar    1  UNL1        0.0000
      7 C          -0.7271   -1.5069    0.5856 C.ar    1  UNL1        0.0000
      8 C          -2.0785   -1.2780    0.1864 C.ar    1  UNL1        0.0000
      9 N          -3.0823   -2.3087    0.1711 N.am    1  UNL1        0.0000
     10 C          -2.8445   -3.6600    0.2231 C.2     1  UNL1        0.0000
     11 O          -1.7044   -4.0745    0.1371 O.2     1  UNL1        0.0000
     12 C          -3.9591   -4.6656    0.3071 C.ar    1  UNL1        0.0000
     13 C          -3.8204   -5.9710    0.9061 C.ar    1  UNL1        0.0000
     14 C          -4.9249   -6.8469    0.8782 C.ar    1  UNL1        0.0000
     15 C          -6.1362   -6.4760    0.3079 C.ar    1  UNL1        0.0000
     16 C          -6.2808   -5.2171   -0.2545 C.ar    1  UNL1        0.0000
     17 C          -5.2123   -4.3240   -0.2576 C.ar    1  UNL1        0.0000
     18 C          -2.6032   -6.5355    1.6438 C.3     1  UNL1        0.0000
     19 F          -1.5574   -5.6652    1.8437 F       1  UNL1        0.0000
     20 F          -3.0020   -6.9385    2.9073 F       1  UNL1        0.0000
     21 F          -2.1280   -7.6397    0.9614 F       1  UNL1        0.0000
     22 C          -2.4557    0.0396   -0.1661 C.ar    1  UNL1        0.0000
     23 C          -1.4907    1.0471   -0.1327 C.ar    1  UNL1        0.0000
     24 H          -2.3594    4.1450   -1.1971 H       1  UNL1        0.0000
     25 H           1.4641    1.9196   -0.5084 H       1  UNL1        0.0000
     26 H           1.0151    2.2682    1.2226 H       1  UNL1        0.0000
     27 H           1.2238   -0.6417    0.9245 H       1  UNL1        0.0000
     28 H          -0.3606   -2.4628    0.9113 H       1  UNL1        0.0000
     29 H          -4.0576   -1.9784    0.1570 H       1  UNL1        0.0000
     30 H          -4.8521   -7.8331    1.3232 H       1  UNL1        0.0000
     31 H          -6.9677   -7.1688    0.3082 H       1  UNL1        0.0000
     32 H          -7.2257   -4.9333   -0.6997 H       1  UNL1        0.0000
     33 H          -5.3814   -3.3713   -0.7371 H       1  UNL1        0.0000
     34 H          -3.4713    0.2711   -0.4644 H       1  UNL1        0.0000
@<TRIPOS>BOND
     1     1    24    1
     2     2     1    1
     3     3     2    1
     4     4     3    1
     5     4    25    1
     6     4    26    1
     7     5     4    1
     8     6     5   ar
     9     6    27    1
    10     7     6   ar
    11     7    28    1
    12     8     7   ar
    13     9     8    1
    14     9    29    1
    15    10     9   am
    16    11    10    2
    17    12    10    1
    18    13    12   ar
    19    14    13   ar
    20    14    30    1
    21    15    14   ar
    22    15    31    1
    23    16    15   ar
    24    16    32    1
    25    17    16   ar
    26    17    12   ar
    27    17    33    1
    28    18    13    1
    29    19    18    1
    30    20    18    1
    31    21    18    1
    32    22     8   ar
    33    22    34    1
    34    23    22   ar
    35    23     2    1
    36    23     5   ar
@<TRIPOS>MOLECULE
mol_148_akc_jbiopha2020111049
>144.sdf
 50 54 0 0 0
SMALL
GASTEIGER

@<TRIPOS>ATOM
      1 F           2.1101   -0.1644   -0.0409 F       1  UNL1       -0.2047
      2 C           0.7753   -0.0172   -0.0025 C.ar    1  UNL1        0.1341
      3 C           0.2012    1.2575    0.0180 C.ar    1  UNL1        0.0542
      4 C          -1.2003    1.3537    0.0416 C.ar    1  UNL1       -0.0270
      5 C          -2.0084    0.2110    0.0497 C.ar    1  UNL1        0.0356
      6 N          -3.4183    0.2484    0.0595 N.am    1  UNL1       -0.2693
      7 C          -4.2216    1.3406   -0.1684 C.2     1  UNL1        0.3064
      8 O          -3.8151    2.4639   -0.4670 O.2     1  UNL1       -0.2523
      9 N          -5.5753    1.1022   -0.0602 N.am    1  UNL1       -0.2854
     10 C          -6.2802   -0.1179    0.2841 C.3     1  UNL1        0.0162
     11 C          -7.6699    0.1008   -0.2884 C.3     1  UNL1       -0.0357
     12 C          -7.8968    1.5969   -0.1150 C.3     1  UNL1       -0.0357
     13 C          -6.5052    2.2080   -0.2207 C.3     1  UNL1        0.0162
     14 C          -1.4002   -1.0506    0.0580 C.ar    1  UNL1       -0.0377
     15 C          -0.0101   -1.1654    0.0218 C.ar    1  UNL1       -0.0240
     16 C           1.0079    2.4804    0.0232 C.ar    1  UNL1        0.1439
     17 N           0.5489    3.7196    0.0665 N.ar    1  UNL1       -0.2082
     18 C           1.6474    4.5298    0.0536 C.ar    1  UNL1        0.1783
     19 C           2.8151    3.7871    0.0108 C.ar    1  UNL1        0.0861
     20 N           2.3862    2.4905   -0.0097 N.ar    1  UNL1       -0.3365
     21 C           4.0737    4.3807    0.0001 C.ar    1  UNL1       -0.0255
     22 C           4.1048    5.7845    0.0217 C.ar    1  UNL1        0.0023
     23 C           2.8650    6.4448    0.0573 C.ar    1  UNL1        0.0378
     24 N           1.6323    5.8777    0.0810 N.ar    1  UNL1       -0.2338
     25 C           5.3868    6.5223    0.0128 C.ar    1  UNL1       -0.0164
     26 C           6.4948    6.0506   -0.7174 C.ar    1  UNL1       -0.0540
     27 C           7.7186    6.7257   -0.7052 C.ar    1  UNL1       -0.0612
     28 C           7.8583    7.8997    0.0274 C.ar    1  UNL1       -0.0617
     29 C           6.7770    8.3960    0.7467 C.ar    1  UNL1       -0.0612
     30 C           5.5569    7.7120    0.7433 C.ar    1  UNL1       -0.0540
     31 H          -1.6391    2.3492    0.0673 H       1  UNL1        0.0644
     32 H          -3.8844   -0.6387    0.1266 H       1  UNL1        0.1564
     33 H          -6.3023   -0.1913    1.3768 H       1  UNL1        0.0465
     34 H          -5.8043   -1.0097   -0.1294 H       1  UNL1        0.0465
     35 H          -7.6742   -0.1499   -1.3562 H       1  UNL1        0.0281
     36 H          -8.4319   -0.5060    0.2080 H       1  UNL1        0.0281
     37 H          -8.5794    2.0027   -0.8679 H       1  UNL1        0.0281
     38 H          -8.3259    1.8029    0.8720 H       1  UNL1        0.0281
     39 H          -6.3350    2.6919   -1.1879 H       1  UNL1        0.0465
     40 H          -6.3314    2.9421    0.5741 H       1  UNL1        0.0465
     41 H          -1.9985   -1.9579    0.0731 H       1  UNL1        0.0637
     42 H           0.4649   -2.1414    0.0095 H       1  UNL1        0.0647
     43 H           2.9671    1.6650   -0.0453 H       1  UNL1        0.1674
     44 H           4.9760    3.7797   -0.0112 H       1  UNL1        0.0646
     45 H           2.8221    7.5325    0.0580 H       1  UNL1        0.0836
     46 H           6.4170    5.1466   -1.3170 H       1  UNL1        0.0624
     47 H           8.5597    6.3329   -1.2702 H       1  UNL1        0.0618
     48 H           8.8092    8.4263    0.0375 H       1  UNL1        0.0618
     49 H           6.8804    9.3140    1.3206 H       1  UNL1        0.0618
     50 H           4.7426    8.1187    1.3402 H       1  UNL1        0.0624
@<TRIPOS>BOND
     1     2     1    1
     2     3     2   ar
     3     4     3   ar
     4     4    31    1
     5     5     4   ar
     6     6     5    1
     7     6    32    1
     8     7     6   am
     9     8     7    2
    10     9     7   am
    11    10     9    1
    12    10    33    1
    13    10    34    1
    14    11    10    1
    15    11    35    1
    16    11    36    1
    17    12    11    1
    18    12    37    1
    19    12    38    1
    20    13    12    1
    21    13     9    1
    22    13    39    1
    23    13    40    1
    24    14     5   ar
    25    14    41    1
    26    15    14   ar
    27    15     2   ar
    28    15    42    1
    29    16     3    1
    30    17    16   ar
    31    18    17   ar
    32    19    18   ar
    33    20    19   ar
    34    20    16   ar
    35    20    43    1
    36    21    19   ar
    37    21    44    1
    38    22    21   ar
    39    23    22   ar
    40    23    45    1
    41    24    23   ar
    42    24    18   ar
    43    25    22    1
    44    26    25   ar
    45    26    46    1
    46    27    26   ar
    47    27    47    1
    48    28    27   ar
    49    28    48    1
    50    29    28   ar
    51    29    49    1
    52    30    29   ar
    53    30    25   ar
    54    30    50    1
@<TRIPOS>MOLECULE
mol_149_akc_jbiopha2020111049
>145.sdf
 47 49 0 0 0
SMALL
GASTEIGER

@<TRIPOS>ATOM
      1 C           5.7351    0.9527   -0.7315 C.3     1  UNL1       -0.0444
      2 C           5.7608    0.9598    0.7981 C.3     1  UNL1        0.0306
      3 C           6.8982    1.8128    1.3612 C.3     1  UNL1       -0.0444
      4 N           4.4467    1.2445    1.3823 N.ar    1  UNL1       -0.3240
      5 C           3.7638    2.4531    1.3200 C.ar    1  UNL1        0.1072
      6 C           4.2502    3.7070    0.6817 C.3     1  UNL1       -0.0063
      7 N           2.5958    2.3699    1.9179 N.ar    1  UNL1       -0.2402
      8 C           2.5075    1.0980    2.3896 C.ar    1  UNL1        0.0552
      9 C           3.6388    0.3561    2.1012 C.ar    1  UNL1        0.0875
     10 C           3.9227   -1.0320    2.4734 C.ar    1  UNL1        0.0939
     11 N           4.7231   -1.7011    1.6360 N.ar    1  UNL1       -0.2127
     12 C           5.1004   -2.9462    1.9586 C.ar    1  UNL1        0.2200
     13 N           6.0326   -3.5984    1.1554 N.pl3   1  UNL1       -0.2836
     14 C           6.3562   -3.3702   -0.1863 C.ar    1  UNL1        0.0337
     15 C           7.6506   -3.6340   -0.6524 C.ar    1  UNL1       -0.0387
     16 C           8.0267   -3.3100   -1.9624 C.ar    1  UNL1       -0.0351
     17 C           7.0900   -2.7315   -2.8250 C.ar    1  UNL1        0.0880
     18 C           5.7988   -2.4634   -2.3854 C.ar    1  UNL1       -0.0351
     19 C           5.4436   -2.7785   -1.0760 C.ar    1  UNL1       -0.0387
     20 S           7.5752   -2.2177   -4.4559 S.O2    1  UNL1       -0.0059
     21 C           7.2913   -3.6536   -5.4547 C.3     1  UNL1        0.0596
     22 O           6.6614   -1.1773   -4.8828 O.2     1  UNL1       -0.1696
     23 O           9.0075   -1.9754   -4.4201 O.2     1  UNL1       -0.1696
     24 N           4.6773   -3.5790    3.0592 N.ar    1  UNL1       -0.2226
     25 C           3.8048   -2.9116    3.8392 C.ar    1  UNL1        0.0333
     26 C           3.3974   -1.6207    3.5997 C.ar    1  UNL1       -0.0159
     27 H           6.6786    0.5647   -1.1302 H       1  UNL1        0.0249
     28 H           4.9233    0.3199   -1.1053 H       1  UNL1        0.0249
     29 H           5.5974    1.9489   -1.1556 H       1  UNL1        0.0249
     30 H           6.0392   -0.0484    1.0937 H       1  UNL1        0.0523
     31 H           6.8504    2.8528    1.0335 H       1  UNL1        0.0249
     32 H           6.8936    1.7938    2.4565 H       1  UNL1        0.0249
     33 H           7.8642    1.4143    1.0284 H       1  UNL1        0.0249
     34 H           5.0681    4.1469    1.2576 H       1  UNL1        0.0307
     35 H           4.5675    3.5565   -0.3496 H       1  UNL1        0.0307
     36 H           3.4419    4.4466    0.6550 H       1  UNL1        0.0307
     37 H           1.6220    0.7719    2.9190 H       1  UNL1        0.0852
     38 H           6.4093   -4.4168    1.6079 H       1  UNL1        0.1550
     39 H           8.3974   -4.0491    0.0218 H       1  UNL1        0.0637
     40 H           9.0508   -3.4831   -2.2857 H       1  UNL1        0.0637
     41 H           5.0684   -1.9847   -3.0363 H       1  UNL1        0.0637
     42 H           4.4338   -2.5422   -0.7456 H       1  UNL1        0.0637
     43 H           6.2319   -3.9108   -5.4166 H       1  UNL1        0.0468
     44 H           7.5771   -3.4103   -6.4808 H       1  UNL1        0.0468
     45 H           7.9067   -4.4764   -5.0857 H       1  UNL1        0.0468
     46 H           3.4376   -3.4626    4.7006 H       1  UNL1        0.0831
     47 H           2.7225   -1.1099    4.2719 H       1  UNL1        0.0655
@<TRIPOS>BOND
     1     1    27    1
     2     1    28    1
     3     1    29    1
     4     2     1    1
     5     2    30    1
     6     3     2    1
     7     3    31    1
     8     3    32    1
     9     3    33    1
    10     4     2    1
    11     5     4   ar
    12     6     5    1
    13     6    34    1
    14     6    35    1
    15     6    36    1
    16     7     5   ar
    17     8     7   ar
    18     8    37    1
    19     9     8   ar
    20     9     4   ar
    21    10     9    1
    22    11    10   ar
    23    12    11   ar
    24    13    12    1
    25    13    38    1
    26    14    13    1
    27    15    14   ar
    28    15    39    1
    29    16    15   ar
    30    16    40    1
    31    17    16   ar
    32    18    17   ar
    33    18    41    1
    34    19    18   ar
    35    19    14   ar
    36    19    42    1
    37    20    17    1
    38    21    20    1
    39    21    43    1
    40    21    44    1
    41    21    45    1
    42    22    20    2
    43    23    20    2
    44    24    12   ar
    45    25    24   ar
    46    25    46    1
    47    26    25   ar
    48    26    10   ar
    49    26    47    1
@<TRIPOS>MOLECULE
mol_14_akc_jbmcl2021128289
>14.sdf
 53 57 0 0 0
SMALL
GASTEIGER

@<TRIPOS>ATOM
      1 C           4.0861   -0.2662    0.2059 C.3     1  UNL1        0.0004
      2 N           3.6782    1.1355    0.1863 N.pl3   1  UNL1       -0.3360
      3 C           4.7651    2.0903   -0.0570 C.3     1  UNL1        0.0004
      4 C           2.7876    1.5663    1.1855 C.ar    1  UNL1        0.0298
      5 C           2.6181    0.9041    2.4146 C.ar    1  UNL1       -0.0320
      6 C           1.7109    1.3843    3.3631 C.ar    1  UNL1       -0.0037
      7 C           1.5353    0.7353    4.6774 C.2     1  UNL1        0.0531
      8 N           2.2711   -0.2416    5.1183 N.2     1  UNL1       -0.1832
      9 N           2.0179   -0.6085    6.4361 N.am    1  UNL1       -0.1694
     10 C           1.7343    0.3499    7.4553 C.2     1  UNL1        0.2773
     11 O           1.6325    1.5652    7.3747 O.2     1  UNL1       -0.2674
     12 C           1.4961   -0.4020    8.6866 C.2     1  UNL1        0.1140
     13 C           1.8176   -1.6705    8.3909 C.2     1  UNL1       -0.0274
     14 C           2.5446   -1.8304    7.0559 C.3     1  UNL1        0.1333
     15 C           4.0772   -1.7982    7.3226 C.ar    1  UNL1        0.0074
     16 C           5.0099   -0.9629    6.7065 C.ar    1  UNL1       -0.0541
     17 C           6.3623   -1.0556    7.0559 C.ar    1  UNL1       -0.0613
     18 C           6.7797   -1.9267    8.0671 C.ar    1  UNL1       -0.0600
     19 C           5.8760   -2.8206    8.6316 C.ar    1  UNL1       -0.0402
     20 C           4.5659   -2.8314    8.1618 C.ar    1  UNL1        0.0373
     21 N           3.7347   -3.9675    8.3229 N.pl3   1  UNL1       -0.3139
     22 C           2.8706   -4.2983    7.2354 C.ar    1  UNL1        0.0373
     23 C           2.2552   -3.2255    6.5033 C.ar    1  UNL1        0.0074
     24 C           1.5500   -3.5159    5.3370 C.ar    1  UNL1       -0.0541
     25 C           1.4911   -4.8437    4.8878 C.ar    1  UNL1       -0.0613
     26 C           2.0992   -5.8781    5.6041 C.ar    1  UNL1       -0.0600
     27 C           2.7835   -5.6110    6.7919 C.ar    1  UNL1       -0.0402
     28 C           1.8448   -0.0177   10.1153 C.1     1  UNL1        0.1042
     29 N           2.1341    0.3011   11.3005 N.1     1  UNL1       -0.1907
     30 C           0.9549    2.5338    3.1045 C.ar    1  UNL1       -0.0530
     31 C           1.1054    3.1977    1.8926 C.ar    1  UNL1       -0.0594
     32 C           2.0180    2.7187    0.9447 C.ar    1  UNL1       -0.0406
     33 H           4.5578   -0.5258   -0.7482 H       1  UNL1        0.0428
     34 H           4.8065   -0.4667    1.0059 H       1  UNL1        0.0428
     35 H           3.2200   -0.9284    0.3181 H       1  UNL1        0.0428
     36 H           4.3902    3.0342   -0.4680 H       1  UNL1        0.0428
     37 H           5.3219    2.3004    0.8640 H       1  UNL1        0.0428
     38 H           5.4721    1.6880   -0.7911 H       1  UNL1        0.0428
     39 H           3.2041    0.0221    2.6564 H       1  UNL1        0.0642
     40 H           0.7041    1.1480    5.2773 H       1  UNL1        0.0851
     41 H           1.9084   -2.4287    9.1618 H       1  UNL1        0.0615
     42 H           4.7142   -0.2800    5.9143 H       1  UNL1        0.0622
     43 H           7.0979   -0.4502    6.5318 H       1  UNL1        0.0618
     44 H           7.8254   -1.9551    8.3630 H       1  UNL1        0.0618
     45 H           6.2186   -3.5511    9.3581 H       1  UNL1        0.0636
     46 H           4.1552   -4.7484    8.8091 H       1  UNL1        0.1522
     47 H           1.1012   -2.7253    4.7469 H       1  UNL1        0.0622
     48 H           0.9879   -5.0671    3.9523 H       1  UNL1        0.0618
     49 H           2.0854   -6.8943    5.2121 H       1  UNL1        0.0618
     50 H           3.2978   -6.4151    7.3086 H       1  UNL1        0.0636
     51 H           0.2561    2.9223    3.8435 H       1  UNL1        0.0624
     52 H           0.5210    4.0893    1.6798 H       1  UNL1        0.0618
     53 H           2.1005    3.2377   -0.0041 H       1  UNL1        0.0636
@<TRIPOS>BOND
     1     1    33    1
     2     1    34    1
     3     1    35    1
     4     2     1    1
     5     3     2    1
     6     3    36    1
     7     3    37    1
     8     3    38    1
     9     4     2    1
    10     5     4   ar
    11     5    39    1
    12     6     5   ar
    13     7     6    1
    14     7    40    1
    15     8     7    2
    16     9     8    1
    17    10     9   am
    18    11    10    2
    19    12    10    1
    20    13    12    2
    21    13    41    1
    22    14    13    1
    23    14     9    1
    24    15    14    1
    25    16    15   ar
    26    16    42    1
    27    17    16   ar
    28    17    43    1
    29    18    17   ar
    30    18    44    1
    31    19    18   ar
    32    19    45    1
    33    20    19   ar
    34    20    15   ar
    35    21    20    1
    36    21    46    1
    37    22    21    1
    38    23    22   ar
    39    23    14    1
    40    24    23   ar
    41    24    47    1
    42    25    24   ar
    43    25    48    1
    44    26    25   ar
    45    26    49    1
    46    27    26   ar
    47    27    22   ar
    48    27    50    1
    49    28    12    1
    50    29    28    3
    51    30     6   ar
    52    30    51    1
    53    31    30   ar
    54    31    52    1
    55    32    31   ar
    56    32     4   ar
    57    32    53    1
@<TRIPOS>MOLECULE
mol_150_akc_jbiopha2020111049
>146.sdf
 39 41 0 0 0
SMALL
GASTEIGER

@<TRIPOS>ATOM
      1 C           3.8090    0.8587    0.0890 C.3     1  UNL1       -0.0423
      2 C           2.6093   -0.0941   -0.0421 C.3     1  UNL1        0.0483
      3 N           2.9659   -1.2958   -0.7930 N.pl3   1  UNL1       -0.2958
      4 C           3.5843   -1.2357   -2.1025 C.3     1  UNL1        0.0040
      5 C           2.6590   -2.5437   -0.2911 C.ar    1  UNL1        0.2200
      6 N           3.1386   -3.6287   -0.9163 N.ar    1  UNL1       -0.2219
      7 C           2.7522   -4.8300   -0.4602 C.ar    1  UNL1        0.0452
      8 C           1.8981   -4.9889    0.6165 C.ar    1  UNL1        0.0770
      9 C           1.4067   -6.1842    1.1336 C.ar    1  UNL1        0.1320
     10 N           1.7332   -7.4293    0.5858 N.pl3   1  UNL1       -0.3424
     11 N           0.5476   -6.2118    2.1548 N.ar    1  UNL1       -0.1994
     12 C           0.2152   -5.0356    2.6811 C.ar    1  UNL1        0.2162
     13 N          -0.6829   -5.0388    3.7290 N.pl3   1  UNL1       -0.3274
     14 N           0.6392   -3.8547    2.2480 N.ar    1  UNL1       -0.1947
     15 C           1.4758   -3.8281    1.2191 C.ar    1  UNL1        0.1715
     16 N           1.8618   -2.6358    0.7817 N.ar    1  UNL1       -0.1944
     17 C           1.3737    0.5835   -0.6263 C.ar    1  UNL1       -0.0245
     18 C           0.1003    0.2287   -0.1453 C.ar    1  UNL1       -0.0384
     19 C          -1.0395    0.9057   -0.5840 C.ar    1  UNL1        0.0427
     20 CL         -2.5799    0.4947    0.0649 Cl      1  UNL1       -0.0835
     21 C          -0.9412    1.9290   -1.5217 C.ar    1  UNL1       -0.0250
     22 C           0.3081    2.2563   -2.0361 C.ar    1  UNL1        0.0427
     23 CL          0.4514    3.5160   -3.2005 Cl      1  UNL1       -0.0835
     24 C           1.4554    1.5906   -1.6018 C.ar    1  UNL1       -0.0384
     25 H           3.5111    1.7899    0.5863 H       1  UNL1        0.0251
     26 H           4.6019    0.3984    0.6877 H       1  UNL1        0.0251
     27 H           4.2483    1.1281   -0.8769 H       1  UNL1        0.0251
     28 H           2.3667   -0.3388    1.0016 H       1  UNL1        0.0548
     29 H           4.6674   -1.3773   -2.0230 H       1  UNL1        0.0429
     30 H           3.1810   -1.9919   -2.7868 H       1  UNL1        0.0429
     31 H           3.4098   -0.2728   -2.5910 H       1  UNL1        0.0429
     32 H           3.1445   -5.6794   -1.0098 H       1  UNL1        0.0839
     33 H           1.2642   -8.1395    1.1464 H       1  UNL1        0.1437
     34 H           2.7343   -7.5921    0.5601 H       1  UNL1        0.1437
     35 H          -1.1603   -4.1470    3.7711 H       1  UNL1        0.1452
     36 H          -1.2587   -5.8666    3.6954 H       1  UNL1        0.1452
     37 H           0.0026   -0.5652    0.5948 H       1  UNL1        0.0635
     38 H          -1.8268    2.4676   -1.8448 H       1  UNL1        0.0647
     39 H           2.4168    1.8796   -2.0178 H       1  UNL1        0.0635
@<TRIPOS>BOND
     1     1    25    1
     2     1    26    1
     3     1    27    1
     4     3     2    1
     5     4     3    1
     6     4    29    1
     7     4    30    1
     8     4    31    1
     9     5     3    1
    10     6     5   ar
    11     7     6   ar
    12     7    32    1
    13     8     7   ar
    14     9     8   ar
    15    10     9    1
    16    10    33    1
    17    10    34    1
    18    11     9   ar
    19    12    11   ar
    20    13    12    1
    21    13    35    1
    22    13    36    1
    23    14    12   ar
    24    15    14   ar
    25    15     8   ar
    26    16    15   ar
    27    16     5   ar
    28    17     2    1
    29    18    17   ar
    30    18    37    1
    31    19    18   ar
    32    20    19    1
    33    21    19   ar
    34    21    38    1
    35    22    21   ar
    36    23    22    1
    37    24    22   ar
    38    24    17   ar
    39    24    39    1
    40     2    28    1
    41     2     1    1
@<TRIPOS>MOLECULE
mol_151_akc_jbiopha2020111049
>147.sdf
 48 51 0 0 0
SMALL
GASTEIGER

@<TRIPOS>ATOM
      1 C          -2.4163   -0.0682   -0.0918 C.3     1  UNL1       -0.0431
      2 N          -0.9442   -0.0340    0.2205 N.4     1  UNL1        0.2331
      3 C          -0.2992    1.2416   -0.2598 C.3     1  UNL1       -0.0315
      4 C           1.1436    1.2899    0.2159 C.3     1  UNL1       -0.0042
      5 C           1.9462    0.0489   -0.2098 C.3     1  UNL1        0.0089
      6 C           1.2108   -1.2405    0.1890 C.3     1  UNL1       -0.0042
      7 C          -0.2284   -1.2541   -0.3016 C.3     1  UNL1       -0.0315
      8 C           3.3179    0.0805    0.4094 C.ar    1  UNL1        0.0205
      9 C           3.6917    0.1502    1.7326 C.ar    1  UNL1       -0.0326
     10 C           5.1118    0.1682    1.8080 C.ar    1  UNL1        0.0077
     11 C           5.5936    0.0880    0.5006 C.ar    1  UNL1        0.0545
     12 N           4.4803    0.0371   -0.3263 N.ar    1  UNL1       -0.3572
     13 C           6.9593    0.0516   -0.0480 C.ar    1  UNL1       -0.0009
     14 C           7.9665   -0.6992    0.5818 C.ar    1  UNL1       -0.0499
     15 C           9.2938   -0.6216    0.1539 C.ar    1  UNL1       -0.0258
     16 C           9.6132    0.1700   -0.9392 C.ar    1  UNL1        0.1234
     17 F          10.8878    0.2623   -1.3395 F       1  UNL1       -0.2055
     18 C           8.6288    0.8760   -1.6184 C.ar    1  UNL1       -0.0258
     19 C           7.3036    0.8222   -1.1713 C.ar    1  UNL1       -0.0499
     20 C           5.9121    0.2372    3.0289 C.ar    1  UNL1       -0.0130
     21 C           5.5151   -0.4920    4.1546 C.ar    1  UNL1       -0.0358
     22 C           6.3038   -0.4409    5.2916 C.ar    1  UNL1        0.0281
     23 N           7.4447    0.2700    5.3796 N.ar    1  UNL1       -0.2632
     24 C           7.8027    0.9817    4.2907 C.ar    1  UNL1        0.0281
     25 C           7.0662    1.0165    3.1178 C.ar    1  UNL1       -0.0358
     26 H          -2.8304   -0.9896    0.3260 H       1  UNL1        0.0777
     27 H          -2.8828    0.7974    0.3859 H       1  UNL1        0.0777
     28 H          -2.5445   -0.0356   -1.1767 H       1  UNL1        0.0777
     29 H          -0.8719   -0.0494    1.2480 H       1  UNL1        0.2030
     30 H          -0.3730    1.2639   -1.3524 H       1  UNL1        0.0814
     31 H          -0.8692    2.0762    0.1620 H       1  UNL1        0.0814
     32 H           1.6237    2.1956   -0.1754 H       1  UNL1        0.0323
     33 H           1.1461    1.3901    1.3095 H       1  UNL1        0.0323
     34 H           2.0436    0.0634   -1.3039 H       1  UNL1        0.0367
     35 H           1.7395   -2.1130   -0.2151 H       1  UNL1        0.0323
     36 H           1.2126   -1.3589    1.2809 H       1  UNL1        0.0323
     37 H          -0.7561   -2.1344    0.0809 H       1  UNL1        0.0814
     38 H          -0.2912   -1.2372   -1.3952 H       1  UNL1        0.0814
     39 H           3.0146    0.2002    2.5791 H       1  UNL1        0.0642
     40 H           4.5397   -0.0405   -1.3329 H       1  UNL1        0.1656
     41 H           7.7353   -1.3228    1.4431 H       1  UNL1        0.0625
     42 H          10.0778   -1.1590    0.6791 H       1  UNL1        0.0646
     43 H           8.9040    1.4837   -2.4747 H       1  UNL1        0.0646
     44 H           6.5598    1.4217   -1.6883 H       1  UNL1        0.0625
     45 H           4.6208   -1.1027    4.1529 H       1  UNL1        0.0639
     46 H           6.0334   -0.9941    6.1868 H       1  UNL1        0.0830
     47 H           8.7322    1.5358    4.3845 H       1  UNL1        0.0830
     48 H           7.4131    1.6268    2.2907 H       1  UNL1        0.0639
@<TRIPOS>UNITY_ATOM_ATTR
2 1
charge 1
@<TRIPOS>BOND
     1     1    26    1
     2     1    27    1
     3     1    28    1
     4     2     1    1
     5     2    29    1
     6     3     2    1
     7     3    30    1
     8     3    31    1
     9     4     3    1
    10     4    32    1
    11     4    33    1
    12     5     4    1
    13     5    34    1
    14     6     5    1
    15     6    35    1
    16     6    36    1
    17     7     6    1
    18     7     2    1
    19     7    37    1
    20     7    38    1
    21     8     5    1
    22     9     8   ar
    23     9    39    1
    24    10     9   ar
    25    11    10   ar
    26    12    11   ar
    27    12     8   ar
    28    12    40    1
    29    13    11    1
    30    14    13   ar
    31    14    41    1
    32    15    14   ar
    33    15    42    1
    34    16    15   ar
    35    17    16    1
    36    18    16   ar
    37    18    43    1
    38    19    18   ar
    39    19    13   ar
    40    19    44    1
    41    20    10    1
    42    21    20   ar
    43    21    45    1
    44    22    21   ar
    45    22    46    1
    46    23    22   ar
    47    24    23   ar
    48    24    47    1
    49    25    24   ar
    50    25    20   ar
    51    25    48    1
@<TRIPOS>MOLECULE
mol_152_akc_jbiopha2020111049
>148.sdf
 48 50 0 0 0
SMALL
GASTEIGER

@<TRIPOS>ATOM
      1 C           3.8419   -1.0621    1.1457 C.3     1  UNL1       -0.0610
      2 C           3.3814    0.0301    0.1898 C.3     1  UNL1       -0.0237
      3 C           3.4214   -0.4309   -1.2444 C.ar    1  UNL1        0.0377
      4 C           2.3846   -0.9480   -1.9393 C.ar    1  UNL1        0.0503
      5 C           1.0387   -1.1414   -1.2877 C.3     1  UNL1       -0.0218
      6 N           2.4594   -1.3706   -3.2553 N.ar    1  UNL1       -0.2170
      7 C           3.6227   -1.2741   -3.8158 C.ar    1  UNL1        0.2337
      8 N           4.7430   -0.7711   -3.2208 N.ar    1  UNL1       -0.2912
      9 C           4.7208   -0.2860   -1.9528 C.ar    1  UNL1        0.2562
     10 O           5.7035    0.2298   -1.4358 O.2     1  UNL1       -0.2675
     11 N           3.8792   -1.6860   -5.1326 N.ar    1  UNL1       -0.1849
     12 N           5.1448   -1.5797   -5.6418 N.ar    1  UNL1       -0.1674
     13 C           5.0430   -2.0684   -6.8820 C.ar    1  UNL1        0.0623
     14 C           6.2328   -2.1454   -7.7671 C.3     1  UNL1       -0.0205
     15 C           3.7245   -2.4722   -7.1814 C.ar    1  UNL1        0.0013
     16 C           2.9833   -2.2158   -6.0499 C.ar    1  UNL1        0.1321
     17 N           1.6220   -2.4490   -5.8342 N.am    1  UNL1       -0.2661
     18 C           0.7202   -2.8924   -6.8543 C.2     1  UNL1        0.2504
     19 O           1.0994   -2.9971   -8.0108 O.2     1  UNL1       -0.2698
     20 C          -0.7011   -3.1713   -6.5107 C.ar    1  UNL1        0.0504
     21 C          -1.6163   -3.0259   -7.5734 C.ar    1  UNL1       -0.0486
     22 C          -2.9705   -3.2988   -7.3982 C.ar    1  UNL1       -0.0610
     23 C          -3.4272   -3.7209   -6.1575 C.ar    1  UNL1       -0.0607
     24 C          -2.5312   -3.8675   -5.0945 C.ar    1  UNL1       -0.0476
     25 C          -1.1573   -3.6113   -5.2543 C.ar    1  UNL1        0.0197
     26 S          -0.0845   -3.8084   -3.8367 S.3     1  UNL1       -0.1278
     27 C          -0.4653   -5.4989   -3.3039 C.3     1  UNL1       -0.0134
     28 H           3.7616   -0.7154    2.1809 H       1  UNL1        0.0233
     29 H           3.2277   -1.9633    1.0455 H       1  UNL1        0.0233
     30 H           4.8851   -1.3393    0.9620 H       1  UNL1        0.0233
     31 H           2.3704    0.3442    0.4714 H       1  UNL1        0.0313
     32 H           4.0046    0.9226    0.3226 H       1  UNL1        0.0313
     33 H           1.1162   -1.8249   -0.4355 H       1  UNL1        0.0293
     34 H           0.6249   -0.1863   -0.9498 H       1  UNL1        0.0293
     35 H           0.3135   -1.5689   -1.9835 H       1  UNL1        0.0293
     36 H           5.6095   -0.7101   -3.7481 H       1  UNL1        0.1719
     37 H           6.6834   -1.1562   -7.8955 H       1  UNL1        0.0293
     38 H           6.9834   -2.8205   -7.3433 H       1  UNL1        0.0293
     39 H           5.9599   -2.5236   -8.7577 H       1  UNL1        0.0293
     40 H           3.3929   -2.9046   -8.1147 H       1  UNL1        0.0670
     41 H           1.2753   -2.3005   -4.8823 H       1  UNL1        0.1566
     42 H          -1.2771   -2.6968   -8.5563 H       1  UNL1        0.0625
     43 H          -3.6640   -3.1817   -8.2288 H       1  UNL1        0.0618
     44 H          -4.4848   -3.9342   -6.0134 H       1  UNL1        0.0618
     45 H          -2.9348   -4.1795   -4.1327 H       1  UNL1        0.0629
     46 H          -1.4947   -5.5826   -2.9489 H       1  UNL1        0.0344
     47 H          -0.2934   -6.2030   -4.1213 H       1  UNL1        0.0344
     48 H           0.2017   -5.7562   -2.4761 H       1  UNL1        0.0344
@<TRIPOS>BOND
     1     1    28    1
     2     1    29    1
     3     1    30    1
     4     2     1    1
     5     2    31    1
     6     2    32    1
     7     3     2    1
     8     4     3   ar
     9     5     4    1
    10     5    33    1
    11     5    34    1
    12     5    35    1
    13     6     4   ar
    14     7     6   ar
    15     8     7   ar
    16     8    36    1
    17     9     8   ar
    18     9     3   ar
    19    10     9    2
    20    11     7    1
    21    12    11   ar
    22    13    12   ar
    23    14    13    1
    24    14    37    1
    25    14    38    1
    26    14    39    1
    27    15    13   ar
    28    15    40    1
    29    16    15   ar
    30    16    11   ar
    31    17    16    1
    32    17    41    1
    33    18    17   am
    34    19    18    2
    35    20    18    1
    36    21    20   ar
    37    21    42    1
    38    22    21   ar
    39    22    43    1
    40    23    22   ar
    41    23    44    1
    42    24    23   ar
    43    24    45    1
    44    25    24   ar
    45    25    20   ar
    46    26    25    1
    47    27    26    1
    48    27    46    1
    49    27    47    1
    50    27    48    1
@<TRIPOS>MOLECULE
mol_153_akc_jintimp2020107124
>149.sdf
 48 51 0 0 0
SMALL
GASTEIGER

@<TRIPOS>ATOM
      1 C           3.7074    0.7935   -2.1776 C.3     1  UNL1       -0.0618
      2 C           2.6805   -0.0079   -1.3285 C.3     1  UNL1       -0.0357
      3 C           2.1008    0.9124   -0.2440 C.3     1  UNL1       -0.0474
      4 C           3.1725    1.4632    0.6894 C.3     1  UNL1       -0.0236
      5 C           4.1879    0.4467    1.0795 C.3     1  UNL1        0.0887
      6 C           4.3212   -0.9123    0.3771 C.3     1  UNL1        0.0988
      7 C           3.3215   -1.3354   -0.7420 C.3     1  UNL1        0.0020
      8 C           3.9889   -2.0317   -1.9673 C.3     1  UNL1       -0.0566
      9 C           2.2754   -2.3778   -0.1367 C.3     1  UNL1       -0.0407
     10 C           3.0102   -3.5728    0.5346 C.3     1  UNL1       -0.0271
     11 C           2.3346   -4.7722    1.1478 C.ar    1  UNL1       -0.0466
     12 C           1.0531   -5.2273    0.8448 C.ar    1  UNL1       -0.0471
     13 C           0.5796   -6.4150    1.4383 C.ar    1  UNL1        0.0327
     14 C           1.3810   -7.1453    2.3221 C.ar    1  UNL1        0.0325
     15 C           2.6702   -6.7097    2.6086 C.ar    1  UNL1       -0.0500
     16 C           3.1377   -5.5390    2.0224 C.ar    1  UNL1       -0.0579
     17 C           0.8928   -8.3835    2.9623 C.2     1  UNL1        0.1869
     18 O           1.5829   -9.0425    3.7195 O.2     1  UNL1       -0.2873
     19 C          -0.4898   -8.8074    2.6604 C.2     1  UNL1       -0.0107
     20 C          -1.2545   -8.1237    1.8064 C.2     1  UNL1       -0.0107
     21 C          -0.7750   -6.9054    1.1229 C.2     1  UNL1        0.1869
     22 O          -1.5080   -6.3308    0.3269 O.2     1  UNL1       -0.2873
     23 O           3.6550   -0.7266    1.6603 O.3     1  UNL1       -0.3645
     24 C           5.6297   -1.6380    0.5380 C.3     1  UNL1       -0.0328
     25 H           3.4547    1.8566   -2.2409 H       1  UNL1        0.0233
     26 H           4.7226    0.7259   -1.7675 H       1  UNL1        0.0233
     27 H           3.7456    0.4114   -3.2032 H       1  UNL1        0.0233
     28 H           1.8529   -0.2827   -1.9961 H       1  UNL1        0.0304
     29 H           1.3392    0.3766    0.3314 H       1  UNL1        0.0269
     30 H           1.5831    1.7583   -0.7166 H       1  UNL1        0.0269
     31 H           2.6985    1.8851    1.5833 H       1  UNL1        0.0291
     32 H           3.6932    2.2961    0.2009 H       1  UNL1        0.0291
     33 H           5.0488    0.8895    1.5632 H       1  UNL1        0.0625
     34 H           4.9453   -1.5739   -2.2359 H       1  UNL1        0.0236
     35 H           4.1855   -3.0950   -1.8285 H       1  UNL1        0.0236
     36 H           3.3289   -1.9754   -2.8433 H       1  UNL1        0.0236
     37 H           1.6354   -1.8950    0.6114 H       1  UNL1        0.0275
     38 H           1.6085   -2.7355   -0.9304 H       1  UNL1        0.0275
     39 H           3.7238   -4.0046   -0.1714 H       1  UNL1        0.0313
     40 H           3.5970   -3.1555    1.3567 H       1  UNL1        0.0313
     41 H           0.4226   -4.6840    0.1439 H       1  UNL1        0.0628
     42 H           3.3162   -7.2749    3.2771 H       1  UNL1        0.0625
     43 H           4.1573   -5.2207    2.2442 H       1  UNL1        0.0620
     44 H          -0.8378   -9.6999    3.1648 H       1  UNL1        0.0657
     45 H          -2.2714   -8.4323    1.5824 H       1  UNL1        0.0657
     46 H           6.4605   -0.9262    0.5251 H       1  UNL1        0.0258
     47 H           5.6655   -2.1697    1.4958 H       1  UNL1        0.0258
     48 H           5.8145   -2.3764   -0.2437 H       1  UNL1        0.0258
@<TRIPOS>BOND
     1     1    25    1
     2     1    26    1
     3     1    27    1
     4     3     2    1
     5     4     3    1
     6     5     4    1
     7     6     5    1
     8     7     6    1
     9     7     2    1
    10     8    34    1
    11     8    35    1
    12     8    36    1
    13     9    37    1
    14     9    38    1
    15    10     9    1
    16    10    39    1
    17    10    40    1
    18    11    10    1
    19    12    11   ar
    20    12    41    1
    21    13    12   ar
    22    14    13   ar
    23    15    14   ar
    24    15    42    1
    25    16    15   ar
    26    16    11   ar
    27    16    43    1
    28    17    14    1
    29    18    17    2
    30    19    17    1
    31    19    44    1
    32    20    19    2
    33    20    45    1
    34    21    20    1
    35    21    13    1
    36    22    21    2
    37    23     6    1
    38    23     5    1
    39    24    46    1
    40    24    47    1
    41    24    48    1
    42     2     1    1
    43     2    28    1
    44     3    29    1
    45     3    30    1
    46     4    31    1
    47     4    32    1
    48     5    33    1
    49     6    24    1
    50     7     9    1
    51     7     8    1
@<TRIPOS>MOLECULE
mol_154_akc_1478641920201765347
>150.sdf
 56 58 0 0 0
SMALL
GASTEIGER

@<TRIPOS>ATOM
      1 C          17.2578   -3.2865   -4.7436 C.3     1  UNL1       -0.0653
      2 C          16.0000   -4.0893   -5.0379 C.3     1  UNL1       -0.0553
      3 C          15.1103   -3.4296   -6.1104 C.3     1  UNL1       -0.0457
      4 C          13.7856   -4.2164   -6.3726 C.3     1  UNL1        0.0012
      5 C          13.0028   -4.2084   -5.0564 C.3     1  UNL1        0.0524
      6 C          11.5994   -4.6856   -5.1766 C.2     1  UNL1        0.3129
      7 O          11.0445   -5.3669   -4.3259 O.2     1  UNL1       -0.2504
      8 O          10.9004   -4.1477   -6.2333 O.3     1  UNL1       -0.4246
      9 C          11.5220   -3.6360   -7.3888 C.ar    1  UNL1        0.1526
     10 C          10.6622   -3.2142   -8.4236 C.ar    1  UNL1        0.1024
     11 C           9.1621   -3.2198   -8.3281 C.2     1  UNL1        0.1755
     12 O           8.5471   -3.3908   -9.3881 O.2     1  UNL1       -0.2914
     13 C           8.4123   -3.0051   -7.0093 C.3     1  UNL1        0.0452
     14 C           6.9003   -3.1527   -7.2538 C.3     1  UNL1       -0.0530
     15 C           8.7963   -1.6488   -6.3916 C.3     1  UNL1        0.0620
     16 C           8.1627   -1.3984   -5.0279 C.3     1  UNL1       -0.0383
     17 O           8.4544   -0.5753   -7.2657 O.3     1  UNL1       -0.3914
     18 C          11.2352   -2.8783   -9.6586 C.ar    1  UNL1        0.1415
     19 O          10.4699   -2.4527  -10.7233 O.3     1  UNL1       -0.5052
     20 C          12.6140   -3.0215   -9.8708 C.ar    1  UNL1        0.0591
     21 C          13.1799   -2.7819  -11.1954 C.2     1  UNL1       -0.0478
     22 C          14.4829   -2.9968  -11.3794 C.2     1  UNL1       -0.0408
     23 C          15.3960   -3.4594  -10.2809 C.3     1  UNL1        0.1235
     24 C          16.1361   -4.7226  -10.7373 C.3     1  UNL1       -0.0215
     25 C          16.3964   -2.3418   -9.9704 C.3     1  UNL1       -0.0215
     26 O          14.7539   -3.7958   -9.0338 O.3     1  UNL1       -0.4811
     27 C          13.4401   -3.4692   -8.8233 C.ar    1  UNL1        0.1393
     28 C          12.9223   -3.7152   -7.5322 C.ar    1  UNL1        0.0417
     29 H          17.8882   -3.8262   -4.0278 H       1  UNL1        0.0230
     30 H          17.8437   -3.1142   -5.6499 H       1  UNL1        0.0230
     31 H          17.0057   -2.3170   -4.2995 H       1  UNL1        0.0230
     32 H          16.2840   -5.0942   -5.3712 H       1  UNL1        0.0263
     33 H          15.4627   -4.2016   -4.0917 H       1  UNL1        0.0263
     34 H          14.8715   -2.4016   -5.8075 H       1  UNL1        0.0271
     35 H          15.7148   -3.3404   -7.0158 H       1  UNL1        0.0271
     36 H          14.0393   -5.2576   -6.6176 H       1  UNL1        0.0356
     37 H          12.9636   -3.2038   -4.6155 H       1  UNL1        0.0384
     38 H          13.4886   -4.8730   -4.3320 H       1  UNL1        0.0384
     39 H           8.6669   -3.8213   -6.3279 H       1  UNL1        0.0403
     40 H           6.3436   -3.1556   -6.3121 H       1  UNL1        0.0237
     41 H           6.5055   -2.3517   -7.8867 H       1  UNL1        0.0237
     42 H           6.6785   -4.1019   -7.7560 H       1  UNL1        0.0237
     43 H           9.8814   -1.5899   -6.2606 H       1  UNL1        0.0597
     44 H           8.4053   -0.3894   -4.6771 H       1  UNL1        0.0255
     45 H           7.0707   -1.4502   -5.0681 H       1  UNL1        0.0255
     46 H           8.5219   -2.1221   -4.2901 H       1  UNL1        0.0255
     47 H           7.4852   -0.5038   -7.3127 H       1  UNL1        0.2098
     48 H           9.5286   -2.6678  -10.5337 H       1  UNL1        0.2922
     49 H          12.5404   -2.4408  -12.0003 H       1  UNL1        0.0624
     50 H          14.9103   -2.8199  -12.3635 H       1  UNL1        0.0611
     51 H          16.7437   -4.5437  -11.6310 H       1  UNL1        0.0271
     52 H          16.7921   -5.0996   -9.9440 H       1  UNL1        0.0271
     53 H          15.4293   -5.5315  -10.9598 H       1  UNL1        0.0271
     54 H          15.9028   -1.5178   -9.4406 H       1  UNL1        0.0271
     55 H          17.1920   -2.7013   -9.3078 H       1  UNL1        0.0271
     56 H          16.8605   -1.9397  -10.8770 H       1  UNL1        0.0271
@<TRIPOS>BOND
     1     1    29    1
     2     1    30    1
     3     1    31    1
     4     2     1    1
     5     2    32    1
     6     2    33    1
     7     3     2    1
     8     3    34    1
     9     3    35    1
    10     5     4    1
    11     5    37    1
    12     5    38    1
    13     6     5    1
    14     7     6    2
    15     8     6    1
    16     9     8    1
    17    10     9   ar
    18    11    10    1
    19    12    11    2
    20    14    13    1
    21    14    40    1
    22    14    41    1
    23    14    42    1
    24    16    15    1
    25    16    44    1
    26    16    45    1
    27    16    46    1
    28    17    15    1
    29    17    47    1
    30    18    10   ar
    31    19    18    1
    32    19    48    1
    33    20    18   ar
    34    21    20    1
    35    21    49    1
    36    22    21    2
    37    22    50    1
    38    23    22    1
    39    24    23    1
    40    24    51    1
    41    24    52    1
    42    24    53    1
    43    25    23    1
    44    25    54    1
    45    25    55    1
    46    25    56    1
    47    26    23    1
    48    27    26    1
    49    27    20   ar
    50    28    27   ar
    51    28     4    1
    52    28     9   ar
    53     4    36    1
    54     4     3    1
    55    13    39    1
    56    13    11    1
    57    15    43    1
    58    15    13    1
@<TRIPOS>MOLECULE
mol_155_akc_1478641920201747457
>151.sdf
 77 80 0 0 0
SMALL
GASTEIGER

@<TRIPOS>ATOM
      1 C           2.6002   -2.3697   -4.9314 C.3     1  UNL1       -0.0616
      2 C           3.6432   -1.3247   -4.5817 C.3     1  UNL1       -0.0343
      3 C           3.0523    0.0755   -4.5054 C.2     1  UNL1       -0.0661
      4 C           2.5230    0.6185   -5.8015 C.3     1  UNL1       -0.0433
      5 C           3.0666    0.7487   -3.3361 C.2     1  UNL1        0.0215
      6 C           2.4689    2.0832   -3.1361 C.2     1  UNL1        0.3324
      7 O           1.5149    2.5459   -3.7427 O.2     1  UNL1       -0.2456
      8 O           3.1334    2.6832   -2.1238 O.3     1  UNL1       -0.4504
      9 C           2.6696    4.0217   -1.7652 C.3     1  UNL1        0.1819
     10 C           3.8563    4.6533   -1.0314 C.3     1  UNL1        0.1250
     11 O           4.5544    5.5538   -1.9151 O.3     1  UNL1       -0.3853
     12 C           3.4609    5.3768    0.2540 C.3     1  UNL1        0.1105
     13 O           4.6352    5.7592    0.9915 O.3     1  UNL1       -0.3865
     14 C           2.5738    4.5024    1.1437 C.3     1  UNL1        0.0874
     15 C           1.7980    5.3723    2.1192 C.3     1  UNL1       -0.0361
     16 O           1.6857    3.6182    0.4578 O.3     1  UNL1       -0.3421
     17 C           1.3885    3.9118   -0.9042 C.3     1  UNL1        0.1997
     18 O           0.5561    5.0610   -1.0756 O.3     1  UNL1       -0.3412
     19 C          -0.8897    4.8667   -1.0182 C.3     1  UNL1        0.0730
     20 C          -1.4419    6.1865   -1.6264 C.3     1  UNL1       -0.0354
     21 C          -1.4274    3.7673   -2.0017 C.3     1  UNL1       -0.0234
     22 C          -1.4855    2.2736   -1.6604 C.3     1  UNL1       -0.0468
     23 C          -1.5673    1.8508   -0.2295 C.3     1  UNL1       -0.0319
     24 C          -2.3229    2.5073    0.9142 C.3     1  UNL1       -0.0289
     25 C          -2.6918    3.9440    0.6408 C.3     1  UNL1       -0.0294
     26 C          -3.4763    4.7116    1.7277 C.3     1  UNL1       -0.0404
     27 C          -3.3189    4.2143    3.1620 C.3     1  UNL1       -0.0621
     28 C          -2.9576    6.1482    1.5757 C.3     1  UNL1       -0.0498
     29 C          -1.4731    5.9741    1.3256 C.3     1  UNL1       -0.0471
     30 C          -1.3469    4.7067    0.4650 C.3     1  UNL1       -0.0087
     31 C          -2.8419    1.2123    0.3006 C.3     1  UNL1       -0.0284
     32 C          -4.1870    1.2829   -0.3707 C.3     1  UNL1       -0.0593
     33 C          -2.5900   -0.1155    0.9860 C.3     1  UNL1       -0.0593
     34 H           2.2307   -2.2370   -5.9540 H       1  UNL1        0.0233
     35 H           3.0392   -3.3733   -4.8690 H       1  UNL1        0.0233
     36 H           1.7477   -2.3279   -4.2520 H       1  UNL1        0.0233
     37 H           4.1079   -1.5967   -3.6249 H       1  UNL1        0.0307
     38 H           4.4463   -1.3370   -5.3245 H       1  UNL1        0.0307
     39 H           2.4088    1.7076   -5.7985 H       1  UNL1        0.0274
     40 H           3.2171    0.3955   -6.6188 H       1  UNL1        0.0274
     41 H           1.5528    0.1733   -6.0377 H       1  UNL1        0.0274
     42 H           3.5189    0.3154   -2.4498 H       1  UNL1        0.0688
     43 H           2.4658    4.5781   -2.6908 H       1  UNL1        0.0813
     44 H           4.6040    3.8882   -0.7844 H       1  UNL1        0.0659
     45 H           4.1280    6.4308   -1.8639 H       1  UNL1        0.2101
     46 H           2.9508    6.3126   -0.0020 H       1  UNL1        0.0646
     47 H           5.1851    4.9660    1.1210 H       1  UNL1        0.2100
     48 H           3.2095    3.8450    1.7514 H       1  UNL1        0.0621
     49 H           1.2101    6.1162    1.5776 H       1  UNL1        0.0255
     50 H           1.1081    4.7705    2.7185 H       1  UNL1        0.0255
     51 H           2.4702    5.9108    2.7930 H       1  UNL1        0.0255
     52 H           0.8574    3.0354   -1.2538 H       1  UNL1        0.0949
     53 H          -1.0422    7.0792   -1.1398 H       1  UNL1        0.0257
     54 H          -2.5371    6.2238   -1.5915 H       1  UNL1        0.0257
     55 H          -1.1380    6.2787   -2.6775 H       1  UNL1        0.0257
     56 H          -2.4618    4.0317   -2.2680 H       1  UNL1        0.0293
     57 H          -0.8756    3.8553   -2.9486 H       1  UNL1        0.0293
     58 H          -0.6061    1.7813   -2.0940 H       1  UNL1        0.0269
     59 H          -2.3147    1.8311   -2.2275 H       1  UNL1        0.0269
     60 H          -0.6023    1.4456    0.0727 H       1  UNL1        0.0309
     61 H          -1.8737    2.4019    1.8998 H       1  UNL1        0.0312
     62 H          -3.2962    4.0278   -0.2674 H       1  UNL1        0.0310
     63 H          -4.5481    4.6971    1.4942 H       1  UNL1        0.0301
     64 H          -3.8299    3.2547    3.2905 H       1  UNL1        0.0233
     65 H          -3.7718    4.9215    3.8660 H       1  UNL1        0.0233
     66 H          -2.2703    4.0887    3.4477 H       1  UNL1        0.0233
     67 H          -3.1462    6.7721    2.4553 H       1  UNL1        0.0268
     68 H          -3.4266    6.6357    0.7135 H       1  UNL1        0.0268
     69 H          -0.9994    6.8663    0.9136 H       1  UNL1        0.0269
     70 H          -0.9897    5.7972    2.2943 H       1  UNL1        0.0269
     71 H          -0.5657    4.1253    0.9627 H       1  UNL1        0.0331
     72 H          -4.3229    0.4362   -1.0515 H       1  UNL1        0.0235
     73 H          -4.9753    1.2320    0.3896 H       1  UNL1        0.0235
     74 H          -4.3381    2.1990   -0.9459 H       1  UNL1        0.0235
     75 H          -3.1448   -0.1869    1.9245 H       1  UNL1        0.0235
     76 H          -2.8942   -0.9420    0.3331 H       1  UNL1        0.0235
     77 H          -1.5270   -0.2692    1.2084 H       1  UNL1        0.0235
@<TRIPOS>BOND
     1     1    34    1
     2     1    35    1
     3     1    36    1
     4     2     1    1
     5     2    37    1
     6     2    38    1
     7     3     2    1
     8     4     3    1
     9     4    39    1
    10     4    40    1
    11     4    41    1
    12     5     3    2
    13     5    42    1
    14     6     5    1
    15     7     6    2
    16     8     6    1
    17     9     8    1
    18     9    43    1
    19    10     9    1
    20    10    44    1
    21    11    10    1
    22    11    45    1
    23    12    10    1
    24    13    47    1
    25    14    12    1
    26    14    48    1
    27    15    14    1
    28    15    49    1
    29    15    50    1
    30    15    51    1
    31    16    14    1
    32    17    16    1
    33    17     9    1
    34    20    53    1
    35    20    54    1
    36    20    55    1
    37    21    19    1
    38    21    56    1
    39    21    57    1
    40    22    21    1
    41    22    58    1
    42    22    59    1
    43    23    22    1
    44    23    60    1
    45    24    23    1
    46    24    61    1
    47    25    24    1
    48    25    62    1
    49    26    25    1
    50    27    64    1
    51    27    65    1
    52    27    66    1
    53    28    26    1
    54    28    67    1
    55    28    68    1
    56    29    28    1
    57    29    69    1
    58    29    70    1
    59    30    29    1
    60    30    19    1
    61    30    25    1
    62    30    71    1
    63    31    24    1
    64    31    23    1
    65    32    31    1
    66    32    72    1
    67    32    73    1
    68    32    74    1
    69    33    31    1
    70    33    75    1
    71    33    76    1
    72    33    77    1
    73    12    13    1
    74    12    46    1
    75    17    18    1
    76    17    52    1
    77    19    20    1
    78    19    18    1
    79    26    27    1
    80    26    63    1
@<TRIPOS>MOLECULE
mol_156_akc_1478641920191619725
>152.sdf
 26 27 0 0 0
SMALL
GASTEIGER

@<TRIPOS>ATOM
      1 O           1.9026   -1.0641   -0.1531 O.3     1  UNL1       -0.3805
      2 C           0.6583   -0.7170    0.4161 C.3     1  UNL1        0.1549
      3 C          -0.4375   -1.5954   -0.1304 C.3     1  UNL1        0.0212
      4 C          -1.6882   -0.7491    0.0401 C.3     1  UNL1        0.1100
      5 C          -2.7021   -1.0459   -1.0739 C.3     1  UNL1        0.0097
      6 C          -3.9863   -0.2573   -0.9839 C.ar    1  UNL1       -0.0439
      7 C          -4.0911    0.9998   -1.5985 C.ar    1  UNL1       -0.0585
      8 C          -5.2840    1.7215   -1.5472 C.ar    1  UNL1       -0.0615
      9 C          -6.3902    1.1936   -0.8863 C.ar    1  UNL1       -0.0617
     10 C          -6.3008   -0.0548   -0.2727 C.ar    1  UNL1       -0.0615
     11 C          -5.1045   -0.7763   -0.3138 C.ar    1  UNL1       -0.0585
     12 O          -1.2313    0.6094   -0.0493 O.3     1  UNL1       -0.4591
     13 C           0.1222    0.6663    0.0957 C.2     1  UNL1        0.3364
     14 O           0.7897    1.6793   -0.0543 O.2     1  UNL1       -0.2479
     15 H           1.9703   -0.6117   -1.0147 H       1  UNL1        0.2105
     16 H           0.7336   -0.8113    1.5044 H       1  UNL1        0.0711
     17 H          -0.5049   -2.5570    0.3898 H       1  UNL1        0.0331
     18 H          -0.2431   -1.8249   -1.1866 H       1  UNL1        0.0331
     19 H          -2.1334   -0.8965    1.0322 H       1  UNL1        0.0738
     20 H          -2.2482   -0.8335   -2.0508 H       1  UNL1        0.0349
     21 H          -2.9422   -2.1165   -1.0750 H       1  UNL1        0.0349
     22 H          -3.2411    1.4229   -2.1303 H       1  UNL1        0.0620
     23 H          -5.3501    2.6944   -2.0274 H       1  UNL1        0.0618
     24 H          -7.3212    1.7535   -0.8519 H       1  UNL1        0.0618
     25 H          -7.1686   -0.4709    0.2326 H       1  UNL1        0.0618
     26 H          -5.0591   -1.7508    0.1640 H       1  UNL1        0.0620
@<TRIPOS>BOND
     1     1    15    1
     2     2     1    1
     3     2    16    1
     4     3     2    1
     5     3    17    1
     6     3    18    1
     7     4     3    1
     8     4    19    1
     9     5     4    1
    10     5    20    1
    11     5    21    1
    12     6     5    1
    13     7     6   ar
    14     7    22    1
    15     8     7   ar
    16     8    23    1
    17     9     8   ar
    18     9    24    1
    19    10     9   ar
    20    10    25    1
    21    11    10   ar
    22    11     6   ar
    23    11    26    1
    24    12     4    1
    25    13    12    1
    26    13     2    1
    27    14    13    2
@<TRIPOS>MOLECULE
mol_157_akc_fphar2020584668
>153.sdf
 34 35 0 0 0
SMALL
GASTEIGER

@<TRIPOS>ATOM
      1 C           1.2797   -0.4233   -0.1053 C.3     1  UNL1        0.0788
      2 O           2.5263    0.2239   -0.3325 O.3     1  UNL1       -0.4950
      3 C           3.1704    0.7290    0.7648 C.ar    1  UNL1        0.1241
      4 C           2.6867    0.7168    2.0725 C.ar    1  UNL1       -0.0126
      5 C           3.4574    1.2318    3.1286 C.ar    1  UNL1       -0.0181
      6 C           2.9705    1.2359    4.5186 C.2     1  UNL1       -0.0538
      7 C           2.1901    0.2726    5.0363 C.2     1  UNL1       -0.0540
      8 C           1.6870    0.2402    6.4189 C.ar    1  UNL1       -0.0250
      9 C           1.4551    1.3999    7.1703 C.ar    1  UNL1       -0.0546
     10 C           0.9335    1.3172    8.4644 C.ar    1  UNL1       -0.0612
     11 C           0.6257    0.0766    9.0172 C.ar    1  UNL1       -0.0617
     12 C           0.8371   -1.0833    8.2767 C.ar    1  UNL1       -0.0612
     13 C           1.3613   -1.0012    6.9841 C.ar    1  UNL1       -0.0546
     14 C           4.7072    1.8016    2.8454 C.ar    1  UNL1       -0.0126
     15 C           5.1973    1.8153    1.5389 C.ar    1  UNL1        0.1241
     16 O           6.4035    2.3387    1.1579 O.3     1  UNL1       -0.4950
     17 C           7.4248    2.3026    2.1491 C.3     1  UNL1        0.0788
     18 C           4.4200    1.2909    0.5043 C.ar    1  UNL1        0.0218
     19 H           1.3682   -1.2267    0.6342 H       1  UNL1        0.0660
     20 H           0.5168    0.3040    0.1911 H       1  UNL1        0.0660
     21 H           0.9622   -0.8800   -1.0475 H       1  UNL1        0.0660
     22 H           1.7025    0.3198    2.2911 H       1  UNL1        0.0660
     23 H           3.3130    2.0655    5.1318 H       1  UNL1        0.0624
     24 H           1.8994   -0.5810    4.4281 H       1  UNL1        0.0624
     25 H           1.6627    2.3826    6.7566 H       1  UNL1        0.0623
     26 H           0.7598    2.2255    9.0366 H       1  UNL1        0.0618
     27 H           0.2149    0.0142   10.0215 H       1  UNL1        0.0618
     28 H           0.5914   -2.0530    8.7015 H       1  UNL1        0.0618
     29 H           1.5155   -1.9206    6.4234 H       1  UNL1        0.0623
     30 H           5.2843    2.2354    3.6560 H       1  UNL1        0.0660
     31 H           7.2581    3.0691    2.9122 H       1  UNL1        0.0660
     32 H           7.5081    1.3082    2.6016 H       1  UNL1        0.0660
     33 H           8.3760    2.5251    1.6561 H       1  UNL1        0.0660
     34 H           4.7995    1.3113   -0.5138 H       1  UNL1        0.0691
@<TRIPOS>BOND
     1     1    19    1
     2     1    20    1
     3     1    21    1
     4     2     1    1
     5     3     2    1
     6     4     3   ar
     7     4    22    1
     8     5     4   ar
     9     6     5    1
    10     6    23    1
    11     7     6    2
    12     7    24    1
    13     8     7    1
    14     9     8   ar
    15     9    25    1
    16    10     9   ar
    17    10    26    1
    18    11    10   ar
    19    11    27    1
    20    12    11   ar
    21    12    28    1
    22    13    12   ar
    23    13     8   ar
    24    13    29    1
    25    14     5   ar
    26    14    30    1
    27    15    14   ar
    28    16    15    1
    29    17    16    1
    30    17    31    1
    31    17    32    1
    32    17    33    1
    33    18    15   ar
    34    18     3   ar
    35    18    34    1
@<TRIPOS>MOLECULE
mol_158_akc_fvets202000527
>154.sdf
 47 48 0 0 0
SMALL
GASTEIGER

@<TRIPOS>ATOM
      1 C           0.8353   -0.0775    0.0151 C.3     1  UNL1        0.0788
      2 O           2.2560   -0.1339   -0.0021 O.3     1  UNL1       -0.4944
      3 C           2.9529    1.0481    0.0710 C.ar    1  UNL1        0.1307
      4 C           2.3321    2.2975    0.0941 C.ar    1  UNL1        0.0224
      5 C           3.0814    3.4811    0.1081 C.ar    1  UNL1        0.1243
      6 O           2.3795    4.6535    0.1306 O.3     1  UNL1       -0.5063
      7 C           4.4838    3.4728    0.0805 C.ar    1  UNL1        0.0042
      8 C           5.0948    2.1886    0.0735 C.ar    1  UNL1       -0.0436
      9 C           4.3603    0.9789    0.1000 C.ar    1  UNL1        0.0173
     10 C           5.1202   -0.2975    0.1049 C.2     1  UNL1       -0.0475
     11 C           4.6983   -1.4084    0.7290 C.2     1  UNL1       -0.0137
     12 C           5.4365   -2.6979    0.6684 C.2     1  UNL1        0.1861
     13 O           6.6326   -2.7598    0.4023 O.2     1  UNL1       -0.2873
     14 C           4.6563   -3.9282    0.9957 C.ar    1  UNL1        0.0219
     15 C           3.3005   -4.0496    0.6479 C.ar    1  UNL1       -0.0475
     16 C           2.5878   -5.2070    0.9789 C.ar    1  UNL1       -0.0195
     17 C           3.2341   -6.2422    1.6480 C.ar    1  UNL1        0.1169
     18 O           2.5733   -7.3835    1.9921 O.3     1  UNL1       -0.5068
     19 C           4.5810   -6.1414    1.9806 C.ar    1  UNL1       -0.0195
     20 C           5.2971   -4.9879    1.6470 C.ar    1  UNL1       -0.0475
     21 C           5.3763    4.7437    0.0173 C.3     1  UNL1        0.0113
     22 C           6.2104    4.6913   -1.2895 C.3     1  UNL1       -0.0522
     23 C           4.6120    6.0917   -0.0295 C.3     1  UNL1       -0.0522
     24 C           6.3652    4.8983    1.1820 C.2     1  UNL1       -0.0811
     25 C           6.4958    4.1698    2.3000 C.2     1  UNL1       -0.1018
     26 H           0.4679    0.3974    0.9309 H       1  UNL1        0.0660
     27 H           0.4525    0.4276   -0.8776 H       1  UNL1        0.0660
     28 H           0.4600   -1.1050    0.0035 H       1  UNL1        0.0660
     29 H           1.2515    2.3740    0.0872 H       1  UNL1        0.0691
     30 H           1.4271    4.4748    0.1718 H       1  UNL1        0.2921
     31 H           6.1843    2.1280    0.0672 H       1  UNL1        0.0629
     32 H           6.0648   -0.3028   -0.4357 H       1  UNL1        0.0626
     33 H           3.7776   -1.4182    1.2999 H       1  UNL1        0.0656
     34 H           2.7904   -3.2595    0.1030 H       1  UNL1        0.0626
     35 H           1.5395   -5.2828    0.7046 H       1  UNL1        0.0654
     36 H           1.6604   -7.3285    1.6704 H       1  UNL1        0.2921
     37 H           5.0731   -6.9618    2.4981 H       1  UNL1        0.0654
     38 H           6.3527   -4.9165    1.9042 H       1  UNL1        0.0626
     39 H           5.5602    4.6362   -2.1704 H       1  UNL1        0.0241
     40 H           6.8358    5.5865   -1.4012 H       1  UNL1        0.0241
     41 H           6.8871    3.8303   -1.3217 H       1  UNL1        0.0241
     42 H           4.0152    6.2535    0.8763 H       1  UNL1        0.0241
     43 H           5.2973    6.9460   -0.1027 H       1  UNL1        0.0241
     44 H           3.9555    6.1543   -0.9053 H       1  UNL1        0.0241
     45 H           7.0448    5.7480    1.0829 H       1  UNL1        0.0575
     46 H           5.8717    3.3142    2.5216 H       1  UNL1        0.0532
     47 H           7.2519    4.4329    3.0336 H       1  UNL1        0.0532
@<TRIPOS>BOND
     1     1    26    1
     2     1    27    1
     3     1    28    1
     4     2     1    1
     5     3     2    1
     6     4     3   ar
     7     4    29    1
     8     5     4   ar
     9     6     5    1
    10     6    30    1
    11     7     5   ar
    12     8     7   ar
    13     8    31    1
    14     9     8   ar
    15     9     3   ar
    16    10     9    1
    17    10    32    1
    18    11    10    2
    19    11    33    1
    20    12    11    1
    21    13    12    2
    22    14    12    1
    23    15    14   ar
    24    15    34    1
    25    16    15   ar
    26    16    35    1
    27    17    16   ar
    28    18    17    1
    29    18    36    1
    30    19    17   ar
    31    19    37    1
    32    20    19   ar
    33    20    14   ar
    34    20    38    1
    35    21     7    1
    36    22    21    1
    37    22    39    1
    38    22    40    1
    39    22    41    1
    40    23    21    1
    41    23    42    1
    42    23    43    1
    43    23    44    1
    44    24    21    1
    45    24    45    1
    46    25    24    2
    47    25    46    1
    48    25    47    1
@<TRIPOS>MOLECULE
mol_159_akc_journalpone0243392
>155.sdf
 28 30 0 0 0
SMALL
GASTEIGER

@<TRIPOS>ATOM
      1 O           3.5267   -0.3019   -1.0608 O.3     1  UNL1       -0.3899
      2 C           2.2693    0.0009   -0.4350 C.3     1  UNL1        0.0746
      3 C           1.2818    0.5097   -1.5047 C.3     1  UNL1        0.0355
      4 N           0.4838    1.6625   -1.0939 N.pl3   1  UNL1       -0.3407
      5 C           1.3209    2.7124   -0.6217 C.ar    1  UNL1        0.0383
      6 C           2.3059    2.4065    0.3329 C.ar    1  UNL1       -0.0234
      7 C           2.5118    0.9703    0.7333 C.3     1  UNL1        0.0017
      8 C           3.0325    3.4378    0.9336 C.ar    1  UNL1       -0.0562
      9 C           2.8177    4.7608    0.5431 C.ar    1  UNL1       -0.0537
     10 C           1.8805    5.0788   -0.4505 C.ar    1  UNL1       -0.0161
     11 C           1.7106    6.4044   -0.8876 C.ar    1  UNL1       -0.0540
     12 C           0.8016    6.7160   -1.9000 C.ar    1  UNL1       -0.0612
     13 C           0.0318    5.7094   -2.4736 C.ar    1  UNL1       -0.0611
     14 C           0.1728    4.3934   -2.0334 C.ar    1  UNL1       -0.0523
     15 C           1.1036    4.0485   -1.0323 C.ar    1  UNL1        0.0032
     16 H           3.8744    0.5340   -1.4242 H       1  UNL1        0.2099
     17 H           1.9061   -0.9492   -0.0277 H       1  UNL1        0.0612
     18 H           0.5991   -0.3040   -1.7811 H       1  UNL1        0.0487
     19 H           1.8149    0.7667   -2.4287 H       1  UNL1        0.0487
     20 H          -0.1620    1.4197   -0.3391 H       1  UNL1        0.1462
     21 H           1.8110    0.7487    1.5481 H       1  UNL1        0.0339
     22 H           3.5294    0.8340    1.1194 H       1  UNL1        0.0339
     23 H           3.7688    3.2203    1.7025 H       1  UNL1        0.0621
     24 H           3.4002    5.5470    1.0193 H       1  UNL1        0.0624
     25 H           2.3029    7.2060   -0.4518 H       1  UNL1        0.0624
     26 H           0.7023    7.7399   -2.2460 H       1  UNL1        0.0618
     27 H          -0.6698    5.9420   -3.2691 H       1  UNL1        0.0618
     28 H          -0.4284    3.6155   -2.5012 H       1  UNL1        0.0624
@<TRIPOS>BOND
     1     1    16    1
     2     3     2    1
     3     3    18    1
     4     3    19    1
     5     4     3    1
     6     4    20    1
     7     5     4    1
     8     6     5   ar
     9     7     6    1
    10     7     2    1
    11     7    21    1
    12     7    22    1
    13     8     6   ar
    14     8    23    1
    15     9     8   ar
    16     9    24    1
    17    10     9   ar
    18    11    10   ar
    19    11    25    1
    20    12    11   ar
    21    12    26    1
    22    13    12   ar
    23    13    27    1
    24    14    13   ar
    25    14    28    1
    26    15    14   ar
    27    15     5   ar
    28    15    10   ar
    29     2    17    1
    30     2     1    1
@<TRIPOS>MOLECULE
mol_15_akc_jejmech200702010
>15.sdf
 37 39 0 0 0
SMALL
GASTEIGER

@<TRIPOS>ATOM
      1 C           1.0751   -1.0733    0.1541 C.3     1  UNL1        0.0125
      2 C           2.5313   -1.4335    0.2561 C.2     1  UNL1        0.2141
      3 O           2.9322   -2.1573    1.1639 O.2     1  UNL1       -0.2758
      4 N           3.3151   -0.9050   -0.7567 N.am    1  UNL1       -0.2857
      5 C           4.7252   -0.9278   -0.7325 C.ar    1  UNL1        0.0354
      6 C           5.4377   -1.0189   -1.9359 C.ar    1  UNL1       -0.0145
      7 C           6.8276   -1.1257   -1.9538 C.ar    1  UNL1        0.0734
      8 N           7.4825   -1.3327   -3.1170 N.ar    1  UNL1       -0.2466
      9 C           8.8231   -1.4962   -3.1013 C.ar    1  UNL1        0.0734
     10 C           9.5737   -1.4019   -1.9147 C.ar    1  UNL1        0.0011
     11 C          10.9587   -1.5761   -1.9253 C.ar    1  UNL1       -0.0508
     12 C          11.6212   -1.8686   -3.1138 C.ar    1  UNL1       -0.0398
     13 C          10.9062   -1.9834   -4.3022 C.ar    1  UNL1        0.0354
     14 N          11.5072   -2.2945   -5.5426 N.am    1  UNL1       -0.2857
     15 C          12.8493   -2.5353   -5.7839 C.2     1  UNL1        0.2141
     16 C          13.1490   -2.8324   -7.2313 C.3     1  UNL1        0.0125
     17 O          13.7634   -2.5114   -4.9629 O.2     1  UNL1       -0.2758
     18 C           9.5145   -1.7863   -4.2768 C.ar    1  UNL1       -0.0145
     19 C           8.8952   -1.1564   -0.7224 C.ar    1  UNL1       -0.0434
     20 C           7.5086   -1.0437   -0.7233 C.ar    1  UNL1        0.0011
     21 C           6.8098   -0.8794    0.4774 C.ar    1  UNL1       -0.0508
     22 C           5.4223   -0.8423    0.4718 C.ar    1  UNL1       -0.0398
     23 H           0.5125   -1.9230   -0.2393 H       1  UNL1        0.0323
     24 H           0.7132   -0.8278    1.1579 H       1  UNL1        0.0323
     25 H           0.9209   -0.2000   -0.4841 H       1  UNL1        0.0323
     26 H           2.8636   -0.7133   -1.6425 H       1  UNL1        0.1548
     27 H           4.9100   -1.0821   -2.8835 H       1  UNL1        0.0657
     28 H          11.5382   -1.5018   -1.0077 H       1  UNL1        0.0625
     29 H          12.6967   -2.0072   -3.0687 H       1  UNL1        0.0636
     30 H          10.8791   -2.3541   -6.3338 H       1  UNL1        0.1548
     31 H          13.6999   -1.9900   -7.6584 H       1  UNL1        0.0323
     32 H          13.7600   -3.7379   -7.2892 H       1  UNL1        0.0323
     33 H          12.2405   -2.9955   -7.8172 H       1  UNL1        0.0323
     34 H           8.9309   -1.8722   -5.1909 H       1  UNL1        0.0657
     35 H           9.4469   -1.0910    0.2131 H       1  UNL1        0.0631
     36 H           7.3346   -0.8091    1.4271 H       1  UNL1        0.0625
     37 H           4.8991   -0.7328    1.4186 H       1  UNL1        0.0636
@<TRIPOS>BOND
     1     1    23    1
     2     1    24    1
     3     1    25    1
     4     2     1    1
     5     3     2    2
     6     4     2   am
     7     4    26    1
     8     5     4    1
     9     6     5   ar
    10     6    27    1
    11     7     6   ar
    12     8     7   ar
    13     9     8   ar
    14    10     9   ar
    15    11    10   ar
    16    11    28    1
    17    12    11   ar
    18    12    29    1
    19    13    12   ar
    20    14    13    1
    21    14    30    1
    22    15    14   am
    23    16    15    1
    24    16    31    1
    25    16    32    1
    26    16    33    1
    27    17    15    2
    28    18    13   ar
    29    18     9   ar
    30    18    34    1
    31    19    10   ar
    32    19    35    1
    33    20    19   ar
    34    20     7   ar
    35    21    20   ar
    36    21    36    1
    37    22    21   ar
    38    22     5   ar
    39    22    37    1
@<TRIPOS>MOLECULE
mol_160_akc_jijpharm2020119764
>156.sdf
 32 33 0 0 0
SMALL
GASTEIGER

@<TRIPOS>ATOM
      1 O           1.0415   -0.2271   -0.0069 O.2     1  UNL1       -0.2879
      2 C           2.2641   -0.1607    0.0115 C.2     1  UNL1        0.1790
      3 C           3.0296    0.4400    1.1367 C.2     1  UNL1       -0.0144
      4 C           2.3980    0.9858    2.1875 C.2     1  UNL1       -0.0510
      5 C           3.0925    1.6377    3.3097 C.ar    1  UNL1       -0.0249
      6 C           4.3080    2.3187    3.1446 C.ar    1  UNL1       -0.0546
      7 C           4.9181    2.9672    4.2217 C.ar    1  UNL1       -0.0612
      8 C           4.3133    2.9548    5.4751 C.ar    1  UNL1       -0.0617
      9 C           3.0991    2.2951    5.6520 C.ar    1  UNL1       -0.0612
     10 C           2.4906    1.6441    4.5748 C.ar    1  UNL1       -0.0546
     11 C           3.1231   -0.6628   -1.0945 C.2     1  UNL1       -0.0144
     12 C           2.5830   -1.1998   -2.1993 C.2     1  UNL1       -0.0510
     13 C           3.3732   -1.7185   -3.3284 C.ar    1  UNL1       -0.0249
     14 C           4.6466   -2.2829   -3.1602 C.ar    1  UNL1       -0.0546
     15 C           5.3557   -2.7890   -4.2530 C.ar    1  UNL1       -0.0612
     16 C           4.7948   -2.7512   -5.5265 C.ar    1  UNL1       -0.0617
     17 C           3.5233   -2.2104   -5.7070 C.ar    1  UNL1       -0.0612
     18 C           2.8159   -1.7009   -4.6139 C.ar    1  UNL1       -0.0546
     19 H           4.1099    0.4255    1.0684 H       1  UNL1        0.0656
     20 H           1.3107    0.9637    2.2423 H       1  UNL1        0.0625
     21 H           4.7914    2.3722    2.1729 H       1  UNL1        0.0623
     22 H           5.8591    3.4909    4.0763 H       1  UNL1        0.0618
     23 H           4.7830    3.4665    6.3110 H       1  UNL1        0.0618
     24 H           2.6209    2.2924    6.6284 H       1  UNL1        0.0618
     25 H           1.5398    1.1393    4.7363 H       1  UNL1        0.0623
     26 H           4.1948   -0.5661   -0.9757 H       1  UNL1        0.0656
     27 H           1.5003   -1.2546   -2.3045 H       1  UNL1        0.0625
     28 H           5.1022   -2.3516   -2.1762 H       1  UNL1        0.0623
     29 H           6.3424   -3.2205   -4.1057 H       1  UNL1        0.0618
     30 H           5.3440   -3.1500   -6.3755 H       1  UNL1        0.0618
     31 H           3.0798   -2.1878   -6.6990 H       1  UNL1        0.0618
     32 H           1.8241   -1.2851   -4.7798 H       1  UNL1        0.0623
@<TRIPOS>BOND
     1     2     1    2
     2     3     2    1
     3     3    19    1
     4     4     3    2
     5     4    20    1
     6     5     4    1
     7     6     5   ar
     8     6    21    1
     9     7     6   ar
    10     7    22    1
    11     8     7   ar
    12     8    23    1
    13     9     8   ar
    14     9    24    1
    15    10     9   ar
    16    10     5   ar
    17    10    25    1
    18    11     2    1
    19    11    26    1
    20    12    11    2
    21    12    27    1
    22    13    12    1
    23    14    13   ar
    24    14    28    1
    25    15    14   ar
    26    15    29    1
    27    16    15   ar
    28    16    30    1
    29    17    16   ar
    30    17    31    1
    31    18    17   ar
    32    18    13   ar
    33    18    32    1
@<TRIPOS>MOLECULE
mol_161_akc_journalpntd0007235
>157.sdf
 66 67 0 0 0
SMALL
GASTEIGER

@<TRIPOS>ATOM
      1 O           0.6382    2.0254    0.2671 O.3     1  UNL1       -0.3950
      2 C           1.5764    1.0186   -0.0878 C.3     1  UNL1        0.0442
      3 C           2.4868    1.5377   -1.1906 C.3     1  UNL1       -0.0297
      4 C           3.5334    0.5078   -1.6005 C.3     1  UNL1       -0.0510
      5 C           4.4514    1.0764   -2.6835 C.3     1  UNL1       -0.0530
      6 C           5.4856    0.0462   -3.1274 C.3     1  UNL1       -0.0527
      7 C           6.4264    0.6224   -4.1946 C.3     1  UNL1       -0.0458
      8 C           7.4283   -0.4157   -4.7649 C.3     1  UNL1        0.0118
      9 C           6.6211   -1.5527   -5.4337 C.3     1  UNL1        0.0880
     10 O           7.2644   -2.6092   -6.1375 O.3     1  UNL1       -0.2315
     11 O           8.6568   -2.3193   -6.2262 O.3     1  UNL1       -0.1965
     12 C           9.0097   -1.9899   -7.5804 C.3     1  UNL1        0.2347
     13 C          10.2591   -2.8959   -7.8379 C.3     1  UNL1        0.0069
     14 C           9.9927   -4.3521   -7.3417 C.3     1  UNL1       -0.0480
     15 C          10.2923   -5.4843   -8.3211 C.3     1  UNL1       -0.0529
     16 C           9.0867   -6.4450   -8.5071 C.3     1  UNL1       -0.0531
     17 C           8.2870   -6.1614   -9.7921 C.3     1  UNL1       -0.0531
     18 C           6.8584   -5.6747   -9.5178 C.3     1  UNL1       -0.0531
     19 C           6.3701   -4.7096  -10.6142 C.3     1  UNL1       -0.0531
     20 C           5.3424   -3.6935  -10.0953 C.3     1  UNL1       -0.0531
     21 C           5.8492   -2.2367  -10.0770 C.3     1  UNL1       -0.0529
     22 C           6.5916   -1.8449   -8.7889 C.3     1  UNL1       -0.0480
     23 C           8.0684   -2.2359   -8.8087 C.3     1  UNL1        0.0069
     24 O           9.4030   -0.5999   -7.5923 O.3     1  UNL1       -0.1965
     25 O           8.2535    0.1557   -7.0433 O.3     1  UNL1       -0.2315
     26 C           8.4862    0.3087   -5.6407 C.3     1  UNL1        0.0880
     27 H           0.1627    2.2821   -0.5413 H       1  UNL1        0.2094
     28 H           2.1529    0.7635    0.8068 H       1  UNL1        0.0557
     29 H           1.0267    0.1282   -0.4090 H       1  UNL1        0.0557
     30 H           1.8803    1.8215   -2.0600 H       1  UNL1        0.0287
     31 H           2.9760    2.4593   -0.8525 H       1  UNL1        0.0287
     32 H           4.1297    0.2125   -0.7287 H       1  UNL1        0.0266
     33 H           3.0349   -0.3978   -1.9714 H       1  UNL1        0.0266
     34 H           3.8485    1.3799   -3.5485 H       1  UNL1        0.0265
     35 H           4.9572    1.9735   -2.3076 H       1  UNL1        0.0265
     36 H           6.0751   -0.2922   -2.2679 H       1  UNL1        0.0265
     37 H           4.9393   -0.8218   -3.5078 H       1  UNL1        0.0265
     38 H           5.8334    1.0384   -5.0203 H       1  UNL1        0.0269
     39 H           6.9777    1.4592   -3.7499 H       1  UNL1        0.0269
     40 H           7.9780   -0.8394   -3.9129 H       1  UNL1        0.0347
     41 H           5.8767   -1.1200   -6.1070 H       1  UNL1        0.0595
     42 H           6.0600   -2.0810   -4.6579 H       1  UNL1        0.0595
     43 H          10.5525   -2.8665   -8.8909 H       1  UNL1        0.0319
     44 H          11.1148   -2.4915   -7.2807 H       1  UNL1        0.0319
     45 H          10.6104   -4.4991   -6.4446 H       1  UNL1        0.0267
     46 H           8.9592   -4.4616   -6.9978 H       1  UNL1        0.0267
     47 H          10.6552   -5.1163   -9.2745 H       1  UNL1        0.0265
     48 H          11.1110   -6.0777   -7.8892 H       1  UNL1        0.0265
     49 H           9.4920   -7.4640   -8.5934 H       1  UNL1        0.0265
     50 H           8.4402   -6.4731   -7.6106 H       1  UNL1        0.0265
     51 H           8.8309   -5.4376  -10.4085 H       1  UNL1        0.0265
     52 H           8.2373   -7.0792  -10.3822 H       1  UNL1        0.0265
     53 H           6.1864   -6.5520   -9.5025 H       1  UNL1        0.0265
     54 H           6.7875   -5.2090   -8.5395 H       1  UNL1        0.0265
     55 H           7.2102   -4.1830  -11.0778 H       1  UNL1        0.0265
     56 H           5.9082   -5.2998  -11.4173 H       1  UNL1        0.0265
     57 H           4.4765   -3.7267  -10.7689 H       1  UNL1        0.0265
     58 H           4.9596   -3.9770   -9.1070 H       1  UNL1        0.0265
     59 H           6.4561   -2.0192  -10.9650 H       1  UNL1        0.0265
     60 H           4.9647   -1.5911  -10.1465 H       1  UNL1        0.0265
     61 H           6.5025   -0.7623   -8.6541 H       1  UNL1        0.0267
     62 H           6.0563   -2.3251   -7.9734 H       1  UNL1        0.0267
     63 H           8.5162   -1.6840   -9.6520 H       1  UNL1        0.0319
     64 H           8.1278   -3.2891   -9.0779 H       1  UNL1        0.0319
     65 H           8.4928    1.3862   -5.4343 H       1  UNL1        0.0595
     66 H           9.4909   -0.0422   -5.3724 H       1  UNL1        0.0595
@<TRIPOS>BOND
     1     1    27    1
     2     2     1    1
     3     2    28    1
     4     2    29    1
     5     3     2    1
     6     3    30    1
     7     3    31    1
     8     4     3    1
     9     4    32    1
    10     4    33    1
    11     5     4    1
    12     5    34    1
    13     5    35    1
    14     6     5    1
    15     6    36    1
    16     6    37    1
    17     7     6    1
    18     7    38    1
    19     7    39    1
    20     8     7    1
    21     8    40    1
    22     9     8    1
    23     9    41    1
    24     9    42    1
    25    10     9    1
    26    11    10    1
    27    12    11    1
    28    13    12    1
    29    13    43    1
    30    13    44    1
    31    14    13    1
    32    14    45    1
    33    14    46    1
    34    15    14    1
    35    15    47    1
    36    15    48    1
    37    16    15    1
    38    16    49    1
    39    16    50    1
    40    17    16    1
    41    17    51    1
    42    17    52    1
    43    18    17    1
    44    18    53    1
    45    18    54    1
    46    19    18    1
    47    19    55    1
    48    19    56    1
    49    20    19    1
    50    20    57    1
    51    20    58    1
    52    21    20    1
    53    21    59    1
    54    21    60    1
    55    22    21    1
    56    22    61    1
    57    22    62    1
    58    23    22    1
    59    23    12    1
    60    23    63    1
    61    23    64    1
    62    24    12    1
    63    25    24    1
    64    26    25    1
    65    26     8    1
    66    26    65    1
    67    26    66    1
@<TRIPOS>MOLECULE
mol_162_akc_acsjmedchem0c01589
>158.sdf
 66 67 0 0 0
SMALL
GASTEIGER

@<TRIPOS>ATOM
      1 C           5.6310    1.4091    1.4487 C.3     1  UNL1       -0.0653
      2 C           4.3409    1.3778    0.6411 C.3     1  UNL1       -0.0558
      3 C           4.5151    0.9775   -0.8356 C.3     1  UNL1       -0.0506
      4 C           4.9377   -0.4754   -1.0683 C.3     1  UNL1       -0.0207
      5 C           5.2084   -0.8769   -2.5539 C.3     1  UNL1        0.1051
      6 C           6.2642    0.0505   -3.2202 C.3     1  UNL1       -0.0207
      7 C           7.6507    0.0615   -2.5756 C.3     1  UNL1       -0.0506
      8 C           8.5604    1.0534   -3.3060 C.3     1  UNL1       -0.0558
      9 C           9.9616    1.0620   -2.7237 C.3     1  UNL1       -0.0653
     10 C           3.9826   -0.8627   -3.5106 C.3     1  UNL1       -0.0118
     11 C           3.0366   -2.0874   -3.4708 C.3     1  UNL1        0.0308
     12 C           1.7687   -1.7950   -2.6285 C.3     1  UNL1        0.0038
     13 N           0.9678   -0.6279   -3.0910 N.3     1  UNL1       -0.3155
     14 C           0.4385   -0.7702   -4.4518 C.3     1  UNL1       -0.0025
     15 C          -0.3450    0.4571   -4.9496 C.3     1  UNL1       -0.0223
     16 C           0.5284    1.6996   -5.1353 C.3     1  UNL1        0.0253
     17 N          -0.1897    2.8244   -5.7102 N.ar    1  UNL1       -0.3368
     18 C          -0.2476    3.1731   -7.0336 C.ar    1  UNL1        0.0240
     19 C          -0.9548    4.3533   -7.0639 C.ar    1  UNL1        0.0454
     20 N          -1.3328    4.7223   -5.7940 N.ar    1  UNL1       -0.2441
     21 C          -0.8595    3.7857   -5.0043 C.ar    1  UNL1        0.0959
     22 C           3.8149   -3.3976   -3.1273 C.3     1  UNL1        0.2038
     23 C           4.5863   -3.8805   -4.3809 C.3     1  UNL1       -0.0075
     24 O           2.8806   -4.4292   -2.7633 O.3     1  UNL1       -0.3495
     25 C           3.4857   -5.6485   -2.3408 C.3     1  UNL1        0.0398
     26 O           4.7096   -3.1033   -2.0481 O.3     1  UNL1       -0.1989
     27 O           5.7480   -2.2111   -2.5761 O.3     1  UNL1       -0.2253
     28 H           5.4452    1.8639    2.4301 H       1  UNL1        0.0230
     29 H           6.0242    0.4036    1.6228 H       1  UNL1        0.0230
     30 H           6.4027    2.0055    0.9511 H       1  UNL1        0.0230
     31 H           3.6184    0.7171    1.1327 H       1  UNL1        0.0263
     32 H           3.9111    2.3874    0.6657 H       1  UNL1        0.0263
     33 H           3.5544    1.1499   -1.3361 H       1  UNL1        0.0266
     34 H           5.2362    1.6694   -1.2810 H       1  UNL1        0.0266
     35 H           5.8424   -0.6894   -0.4868 H       1  UNL1        0.0294
     36 H           4.1778   -1.1357   -0.6339 H       1  UNL1        0.0294
     37 H           6.4118   -0.2754   -4.2596 H       1  UNL1        0.0294
     38 H           5.8729    1.0735   -3.2801 H       1  UNL1        0.0294
     39 H           7.5869    0.3429   -1.5201 H       1  UNL1        0.0266
     40 H           8.0879   -0.9425   -2.6257 H       1  UNL1        0.0266
     41 H           8.6148    0.7987   -4.3717 H       1  UNL1        0.0263
     42 H           8.1359    2.0627   -3.2387 H       1  UNL1        0.0263
     43 H           9.9436    1.3404   -1.6654 H       1  UNL1        0.0230
     44 H          10.4280    0.0759   -2.8141 H       1  UNL1        0.0230
     45 H          10.5878    1.7848   -3.2559 H       1  UNL1        0.0230
     46 H           3.4575    0.0922   -3.4313 H       1  UNL1        0.0299
     47 H           4.3666   -0.8668   -4.5413 H       1  UNL1        0.0299
     48 H           2.6570   -2.2540   -4.4864 H       1  UNL1        0.0367
     49 H           1.1059   -2.6674   -2.6083 H       1  UNL1        0.0428
     50 H           2.0536   -1.6044   -1.5880 H       1  UNL1        0.0428
     51 H           1.5067    0.2259   -2.9858 H       1  UNL1        0.1219
     52 H           1.2405   -0.9485   -5.1744 H       1  UNL1        0.0425
     53 H          -0.2314   -1.6375   -4.4812 H       1  UNL1        0.0425
     54 H          -0.7977    0.1975   -5.9161 H       1  UNL1        0.0295
     55 H          -1.1789    0.6742   -4.2704 H       1  UNL1        0.0295
     56 H           0.9400    2.0388   -4.1783 H       1  UNL1        0.0492
     57 H           1.3735    1.4844   -5.7988 H       1  UNL1        0.0492
     58 H           0.2144    2.5848   -7.8130 H       1  UNL1        0.0825
     59 H          -1.2050    4.9548   -7.9241 H       1  UNL1        0.0845
     60 H          -0.9664    3.7600   -3.9289 H       1  UNL1        0.1029
     61 H           3.9362   -4.4665   -5.0379 H       1  UNL1        0.0282
     62 H           4.9865   -3.0437   -4.9700 H       1  UNL1        0.0282
     63 H           5.4475   -4.4947   -4.1091 H       1  UNL1        0.0282
     64 H           4.2852   -5.9782   -3.0068 H       1  UNL1        0.0525
     65 H           3.8694   -5.5511   -1.3213 H       1  UNL1        0.0525
     66 H           2.7176   -6.4273   -2.3490 H       1  UNL1        0.0525
@<TRIPOS>BOND
     1     1    28    1
     2     1    29    1
     3     1    30    1
     4     2     1    1
     5     2    31    1
     6     2    32    1
     7     3     2    1
     8     3    33    1
     9     3    34    1
    10     4     3    1
    11     4    35    1
    12     4    36    1
    13     5     4    1
    14     6     5    1
    15     6    37    1
    16     6    38    1
    17     7     6    1
    18     7    39    1
    19     7    40    1
    20     8     7    1
    21     8    41    1
    22     8    42    1
    23     9     8    1
    24     9    43    1
    25     9    44    1
    26     9    45    1
    27    10     5    1
    28    10    46    1
    29    10    47    1
    30    11    10    1
    31    12    49    1
    32    12    50    1
    33    13    12    1
    34    13    51    1
    35    14    13    1
    36    14    52    1
    37    14    53    1
    38    15    14    1
    39    15    54    1
    40    15    55    1
    41    16    15    1
    42    16    56    1
    43    16    57    1
    44    17    16    1
    45    18    17   ar
    46    18    58    1
    47    19    18   ar
    48    19    59    1
    49    20    19   ar
    50    21    20   ar
    51    21    17   ar
    52    21    60    1
    53    22    11    1
    54    23    61    1
    55    23    62    1
    56    23    63    1
    57    25    24    1
    58    25    64    1
    59    25    65    1
    60    25    66    1
    61    26    22    1
    62    27    26    1
    63    27     5    1
    64    11    12    1
    65    11    48    1
    66    22    24    1
    67    22    23    1
@<TRIPOS>MOLECULE
mol_163_akc_acsjmedchem0c01589
>159.sdf
 69 70 0 0 0
SMALL
GASTEIGER

@<TRIPOS>ATOM
      1 C           5.1647    2.6958    0.4753 C.3     1  UNL1       -0.0653
      2 C           4.4762    1.3586    0.2476 C.3     1  UNL1       -0.0559
      3 C           5.1734    0.2478    1.0352 C.3     1  UNL1       -0.0527
      4 C           4.4989   -1.1124    0.8170 C.3     1  UNL1       -0.0453
      5 C           5.1892   -2.3270    1.5295 C.3     1  UNL1       -0.0051
      6 C           5.2065   -2.0897    3.0734 C.3     1  UNL1       -0.0453
      7 C           5.7382   -3.2576    3.9193 C.3     1  UNL1       -0.0527
      8 C           5.6694   -2.9763    5.4189 C.3     1  UNL1       -0.0559
      9 C           6.2372   -4.1539    6.1982 C.3     1  UNL1       -0.0653
     10 C           6.5913   -2.5695    0.9495 C.3     1  UNL1        0.0566
     11 O           6.5061   -2.8473   -0.4513 O.3     1  UNL1       -0.3479
     12 C           5.8428   -4.0724   -0.7809 C.3     1  UNL1        0.1744
     13 C           5.8239   -4.1540   -2.3152 C.3     1  UNL1       -0.0101
     14 O           6.5005   -5.2133   -0.2191 O.3     1  UNL1       -0.3516
     15 C           7.8497   -5.3917   -0.6531 C.3     1  UNL1        0.0397
     16 C           4.3831   -4.0540   -0.2339 C.3     1  UNL1        0.0533
     17 C           3.6889   -5.4286   -0.3464 C.3     1  UNL1       -0.0258
     18 N           2.2698   -5.3013    0.1593 N.4     1  UNL1        0.2274
     19 C           1.4572   -6.5541    0.2461 C.3     1  UNL1       -0.0320
     20 C           0.1107   -6.1751    0.8574 C.3     1  UNL1        0.0054
     21 C          -0.8258   -7.3763    0.9822 C.3     1  UNL1        0.0290
     22 N          -2.1128   -6.9814    1.5183 N.ar    1  UNL1       -0.3366
     23 C          -3.1895   -6.5575    0.7934 C.ar    1  UNL1        0.0240
     24 C          -4.1563   -6.2713    1.7299 C.ar    1  UNL1        0.0454
     25 N          -3.6808   -6.5021    2.9957 N.ar    1  UNL1       -0.2441
     26 C          -2.4579   -6.9458    2.8350 C.ar    1  UNL1        0.0959
     27 C           4.3691   -3.5984    1.2370 C.3     1  UNL1       -0.0327
     28 H           4.6673    3.4850   -0.0963 H       1  UNL1        0.0230
     29 H           5.1386    2.9731    1.5341 H       1  UNL1        0.0230
     30 H           6.2122    2.6548    0.1588 H       1  UNL1        0.0230
     31 H           3.4262    1.4342    0.5531 H       1  UNL1        0.0263
     32 H           4.4888    1.1245   -0.8236 H       1  UNL1        0.0263
     33 H           6.2211    0.2046    0.7216 H       1  UNL1        0.0265
     34 H           5.1579    0.5097    2.0975 H       1  UNL1        0.0265
     35 H           3.4566   -1.0438    1.1570 H       1  UNL1        0.0271
     36 H           4.4492   -1.2886   -0.2651 H       1  UNL1        0.0271
     37 H           5.8072   -1.2039    3.3069 H       1  UNL1        0.0271
     38 H           4.1813   -1.8680    3.4017 H       1  UNL1        0.0271
     39 H           5.1516   -4.1637    3.7409 H       1  UNL1        0.0265
     40 H           6.7733   -3.4751    3.6401 H       1  UNL1        0.0265
     41 H           6.2320   -2.0684    5.6601 H       1  UNL1        0.0263
     42 H           4.6285   -2.8109    5.7205 H       1  UNL1        0.0263
     43 H           5.6703   -5.0683    5.9945 H       1  UNL1        0.0230
     44 H           7.2817   -4.3341    5.9240 H       1  UNL1        0.0230
     45 H           6.1941   -3.9593    7.2726 H       1  UNL1        0.0230
     46 H           7.2306   -1.6909    1.0764 H       1  UNL1        0.0566
     47 H           7.1085   -3.3962    1.4471 H       1  UNL1        0.0566
     48 H           6.8031   -3.8858   -2.7310 H       1  UNL1        0.0281
     49 H           5.5794   -5.1600   -2.6691 H       1  UNL1        0.0281
     50 H           5.1128   -3.4390   -2.7430 H       1  UNL1        0.0281
     51 H           7.8755   -5.7513   -1.6855 H       1  UNL1        0.0525
     52 H           8.4332   -4.4715   -0.5578 H       1  UNL1        0.0525
     53 H           8.3090   -6.1563   -0.0204 H       1  UNL1        0.0525
     54 H           3.8012   -3.3231   -0.8100 H       1  UNL1        0.0405
     55 H           3.6235   -5.7766   -1.3807 H       1  UNL1        0.0818
     56 H           4.1729   -6.1913    0.2731 H       1  UNL1        0.0818
     57 H           2.2907   -4.9147    1.1083 H       1  UNL1        0.2013
     58 H           1.7755   -4.6047   -0.4186 H       1  UNL1        0.2013
     59 H           1.3563   -6.9517   -0.7660 H       1  UNL1        0.0814
     60 H           2.0041   -7.2556    0.8828 H       1  UNL1        0.0814
     61 H           0.2669   -5.7282    1.8486 H       1  UNL1        0.0334
     62 H          -0.3642   -5.3971    0.2449 H       1  UNL1        0.0334
     63 H          -0.9989   -7.8391    0.0074 H       1  UNL1        0.0494
     64 H          -0.4026   -8.1331    1.6525 H       1  UNL1        0.0494
     65 H          -3.1973   -6.4973   -0.2861 H       1  UNL1        0.0825
     66 H          -5.1640   -5.9147    1.5639 H       1  UNL1        0.0845
     67 H          -1.7938   -7.2434    3.6395 H       1  UNL1        0.1029
     68 H           4.7575   -4.4420    1.8158 H       1  UNL1        0.0277
     69 H           3.3477   -3.4170    1.5869 H       1  UNL1        0.0277
@<TRIPOS>UNITY_ATOM_ATTR
18 1
charge 1
@<TRIPOS>BOND
     1     1    28    1
     2     1    29    1
     3     1    30    1
     4     2     1    1
     5     2    31    1
     6     2    32    1
     7     3     2    1
     8     3    33    1
     9     3    34    1
    10     4     3    1
    11     4    35    1
    12     4    36    1
    13     5     4    1
    14     6     5    1
    15     6    37    1
    16     6    38    1
    17     7     6    1
    18     7    39    1
    19     7    40    1
    20     8     7    1
    21     8    41    1
    22     8    42    1
    23     9     8    1
    24     9    43    1
    25     9    44    1
    26     9    45    1
    27    10     5    1
    28    10    46    1
    29    10    47    1
    30    11    10    1
    31    12    11    1
    32    12    13    1
    33    13    48    1
    34    13    49    1
    35    13    50    1
    36    14    12    1
    37    15    14    1
    38    15    51    1
    39    15    52    1
    40    15    53    1
    41    16    12    1
    42    16    54    1
    43    17    16    1
    44    17    55    1
    45    17    56    1
    46    18    17    1
    47    18    57    1
    48    18    58    1
    49    19    18    1
    50    19    59    1
    51    19    60    1
    52    20    19    1
    53    20    61    1
    54    20    62    1
    55    21    20    1
    56    21    63    1
    57    21    64    1
    58    22    21    1
    59    23    22   ar
    60    23    65    1
    61    24    23   ar
    62    24    66    1
    63    25    24   ar
    64    26    25   ar
    65    26    22   ar
    66    26    67    1
    67    27    16    1
    68    27     5    1
    69    27    68    1
    70    27    69    1
@<TRIPOS>MOLECULE
mol_164_akc_journalpone0241855
>160.sdf
 61 62 0 0 0
SMALL
GASTEIGER

@<TRIPOS>ATOM
      1 C           2.1159   -1.0384    0.6084 C.3     1  UNL1        0.0788
      2 O           2.3221   -0.0191   -0.3448 O.3     1  UNL1       -0.4947
      3 C           3.1367    1.0534   -0.1337 C.ar    1  UNL1        0.1270
      4 C           4.0394    1.3502    0.8944 C.ar    1  UNL1       -0.0015
      5 C           4.3914    0.4581    2.0700 C.3     1  UNL1       -0.0058
      6 C           3.5951    0.7768    3.3094 C.2     1  UNL1       -0.0809
      7 C           4.0310    0.9628    4.5723 C.2     1  UNL1       -0.0793
      8 C           5.4565    0.8698    5.0371 C.3     1  UNL1       -0.0440
      9 C           3.0316    1.2881    5.6541 C.3     1  UNL1       -0.0440
     10 C           4.7313    2.5977    0.8380 C.ar    1  UNL1       -0.0473
     11 C           4.6012    3.5182   -0.2272 C.ar    1  UNL1        0.0058
     12 C           5.4490    4.7954   -0.2132 C.3     1  UNL1        0.0339
     13 C           6.5431    4.8628   -1.2753 C.2     1  UNL1       -0.0792
     14 C           7.0669    3.8462   -1.9764 C.2     1  UNL1       -0.1017
     15 C           4.6267    6.0919   -0.0869 C.ar    1  UNL1        0.0055
     16 C           4.3264    6.5770    1.2053 C.ar    1  UNL1       -0.0507
     17 C           3.6030    7.7680    1.4009 C.ar    1  UNL1       -0.0431
     18 C           3.2834    8.2579    2.7967 C.3     1  UNL1       -0.0092
     19 C           4.3571    9.1262    3.3978 C.2     1  UNL1       -0.0810
     20 C           4.3301    9.6471    4.6420 C.2     1  UNL1       -0.0793
     21 C           3.2101    9.4411    5.6245 C.3     1  UNL1       -0.0440
     22 C           5.4682   10.5023    5.1331 C.3     1  UNL1       -0.0440
     23 C           3.1823    8.4972    0.2850 C.ar    1  UNL1       -0.0548
     24 C           3.4480    8.0307   -1.0000 C.ar    1  UNL1       -0.0196
     25 C           4.1557    6.8396   -1.1778 C.ar    1  UNL1        0.1209
     26 O           4.3874    6.3972   -2.4527 O.3     1  UNL1       -0.5065
     27 C           3.7363    3.1543   -1.2599 C.ar    1  UNL1        0.1244
     28 O           3.5526    3.8758   -2.4001 O.3     1  UNL1       -0.5063
     29 C           3.0121    1.9636   -1.1944 C.ar    1  UNL1        0.0221
     30 H           2.9211   -1.7747    0.5562 H       1  UNL1        0.0660
     31 H           1.9648   -0.6578    1.6166 H       1  UNL1        0.0660
     32 H           1.1875   -1.5552    0.3334 H       1  UNL1        0.0660
     33 H           4.2689   -0.5955    1.8104 H       1  UNL1        0.0357
     34 H           5.4675    0.5545    2.2536 H       1  UNL1        0.0357
     35 H           2.5237    0.8797    3.1359 H       1  UNL1        0.0575
     36 H           5.7860    1.8369    5.4314 H       1  UNL1        0.0274
     37 H           5.5428    0.1266    5.8381 H       1  UNL1        0.0274
     38 H           6.1540    0.5744    4.2512 H       1  UNL1        0.0274
     39 H           2.7500    2.3445    5.6019 H       1  UNL1        0.0274
     40 H           2.1291    0.6748    5.5562 H       1  UNL1        0.0274
     41 H           3.4435    1.0961    6.6504 H       1  UNL1        0.0274
     42 H           5.4188    2.8371    1.6509 H       1  UNL1        0.0626
     43 H           6.0421    4.7681    0.7146 H       1  UNL1        0.0442
     44 H           6.9301    5.8604   -1.4822 H       1  UNL1        0.0576
     45 H           6.7502    2.8175   -1.8335 H       1  UNL1        0.0532
     46 H           7.8344    4.0278   -2.7222 H       1  UNL1        0.0532
     47 H           4.6621    6.0182    2.0778 H       1  UNL1        0.0625
     48 H           2.3399    8.8208    2.7597 H       1  UNL1        0.0356
     49 H           3.1057    7.3879    3.4362 H       1  UNL1        0.0356
     50 H           5.2147    9.3448    2.7633 H       1  UNL1        0.0575
     51 H           3.5867    8.9440    6.5249 H       1  UNL1        0.0274
     52 H           2.7814   10.4061    5.9149 H       1  UNL1        0.0274
     53 H           2.3973    8.8284    5.2267 H       1  UNL1        0.0274
     54 H           6.4189    9.9650    5.0569 H       1  UNL1        0.0274
     55 H           5.5319   11.4288    4.5537 H       1  UNL1        0.0274
     56 H           5.3334   10.7791    6.1844 H       1  UNL1        0.0274
     57 H           2.6315    9.4271    0.4116 H       1  UNL1        0.0622
     58 H           3.0933    8.6066   -1.8492 H       1  UNL1        0.0654
     59 H           3.9710    7.0165   -3.0782 H       1  UNL1        0.2921
     60 H           4.1306    4.6630   -2.3790 H       1  UNL1        0.2921
     61 H           2.3361    1.7272   -2.0172 H       1  UNL1        0.0691
@<TRIPOS>BOND
     1     1    30    1
     2     1    31    1
     3     1    32    1
     4     2     1    1
     5     3     2    1
     6     4     3   ar
     7     5     4    1
     8     5    33    1
     9     5    34    1
    10     6     5    1
    11     6    35    1
    12     7     6    2
    13     8     7    1
    14     8    36    1
    15     8    37    1
    16     8    38    1
    17     9     7    1
    18     9    39    1
    19     9    40    1
    20     9    41    1
    21    10     4   ar
    22    10    42    1
    23    11    10   ar
    24    12    11    1
    25    12    43    1
    26    13    12    1
    27    13    44    1
    28    14    13    2
    29    14    45    1
    30    14    46    1
    31    15    12    1
    32    16    15   ar
    33    16    47    1
    34    17    16   ar
    35    18    17    1
    36    18    48    1
    37    18    49    1
    38    19    18    1
    39    19    50    1
    40    20    19    2
    41    21    20    1
    42    21    51    1
    43    21    52    1
    44    21    53    1
    45    22    20    1
    46    22    54    1
    47    22    55    1
    48    22    56    1
    49    23    17   ar
    50    23    57    1
    51    24    23   ar
    52    24    58    1
    53    25    24   ar
    54    25    15   ar
    55    26    25    1
    56    26    59    1
    57    27    11   ar
    58    28    27    1
    59    28    60    1
    60    29    27   ar
    61    29     3   ar
    62    29    61    1
@<TRIPOS>MOLECULE
mol_165_s11033_020_05887_5
>161.sdf
 44 46 0 0 0
SMALL
GASTEIGER

@<TRIPOS>ATOM
      1 C           1.0353    2.2255    1.4648 C.3     1  UNL1       -0.0650
      2 C           2.5551    2.2582    1.4766 C.3     1  UNL1       -0.0519
      3 C           3.1474    1.3674    0.3788 C.3     1  UNL1       -0.0278
      4 C           4.6597    1.3748    0.3766 C.ar    1  UNL1       -0.0431
      5 C           5.3658    0.9438    1.5131 C.ar    1  UNL1       -0.0131
      6 C           6.7617    0.9505    1.5528 C.ar    1  UNL1        0.1631
      7 O           7.2853    0.5200    2.7421 O.3     1  UNL1       -0.4914
      8 C           8.7005    0.4798    2.8873 C.3     1  UNL1        0.0790
      9 C           7.4436    1.3954    0.4193 C.ar    1  UNL1        0.1805
     10 O           8.8430    1.4732    0.4589 O.2     1  UNL1       -0.4179
     11 C           9.5610    2.1516   -0.5028 C.ar    1  UNL1        0.3483
     12 O          10.7004    2.5278   -0.2681 O.2     1  UNL1       -0.2444
     13 C           8.9092    2.3008   -1.8159 C.ar    1  UNL1        0.1072
     14 C           7.5723    2.1900   -1.9032 C.ar    1  UNL1       -0.0332
     15 C           6.7765    1.8041   -0.7386 C.ar    1  UNL1        0.0222
     16 C           5.3778    1.7890   -0.7577 C.ar    1  UNL1       -0.0476
     17 C           9.6684    2.6360   -3.0574 C.2     1  UNL1        0.2000
     18 O           9.1176    3.1858   -4.0078 O.2     1  UNL1       -0.2864
     19 C          11.1202    2.2959   -3.1706 C.ar    1  UNL1        0.0229
     20 C          11.6938    1.1813   -2.5379 C.ar    1  UNL1       -0.0445
     21 C          13.0707    0.9502   -2.6126 C.ar    1  UNL1        0.0163
     22 C          13.8722    1.7998   -3.3835 C.ar    1  UNL1        0.2732
     23 C          13.3034    2.8745   -4.0785 C.ar    1  UNL1        0.0163
     24 C          11.9310    3.1225   -3.9641 C.ar    1  UNL1       -0.0445
     25 N          15.3169    1.5524   -3.4661 N.pl3   1  UNL1        0.0796
     26 O          15.7811    0.6045   -2.8172 O.co2   1  UNL1       -0.5760
     27 O          15.9939    2.3032   -4.1881 O.2     1  UNL1        0.0414
     28 H           0.6381    2.8641    2.2602 H       1  UNL1        0.0230
     29 H           0.6415    2.5858    0.5096 H       1  UNL1        0.0230
     30 H           0.6650    1.2087    1.6306 H       1  UNL1        0.0230
     31 H           2.8980    3.2917    1.3448 H       1  UNL1        0.0266
     32 H           2.8992    1.9355    2.4661 H       1  UNL1        0.0266
     33 H           2.8071    0.3319    0.5054 H       1  UNL1        0.0313
     34 H           2.7713    1.7006   -0.5963 H       1  UNL1        0.0313
     35 H           4.8234    0.6029    2.3943 H       1  UNL1        0.0658
     36 H           9.1532   -0.2091    2.1664 H       1  UNL1        0.0660
     37 H           9.1333    1.4837    2.8244 H       1  UNL1        0.0660
     38 H           8.9286    0.0960    3.8858 H       1  UNL1        0.0660
     39 H           7.0486    2.3533   -2.8427 H       1  UNL1        0.0634
     40 H           4.8408    2.1054   -1.6492 H       1  UNL1        0.0627
     41 H          11.0973    0.4933   -1.9441 H       1  UNL1        0.0627
     42 H          13.4978    0.1166   -2.0591 H       1  UNL1        0.0685
     43 H          13.9104    3.5307   -4.7001 H       1  UNL1        0.0685
     44 H          11.4967    3.9729   -4.4892 H       1  UNL1        0.0627
@<TRIPOS>UNITY_ATOM_ATTR
25 1
charge 1
26 1
charge -1
@<TRIPOS>BOND
     1     1    28    1
     2     1    29    1
     3     1    30    1
     4     2     1    1
     5     2    31    1
     6     2    32    1
     7     3     2    1
     8     3    33    1
     9     3    34    1
    10     4     3    1
    11     5     4   ar
    12     5    35    1
    13     6     5   ar
    14     7     6    1
    15     8     7    1
    16     8    36    1
    17     8    37    1
    18     8    38    1
    19     9     6   ar
    20    10     9   ar
    21    11    10   ar
    22    12    11    2
    23    13    11   ar
    24    14    13   ar
    25    14    39    1
    26    15    14   ar
    27    15     9   ar
    28    16    15   ar
    29    16     4   ar
    30    16    40    1
    31    17    13    1
    32    18    17    2
    33    19    17    1
    34    20    19   ar
    35    20    41    1
    36    21    20   ar
    37    21    42    1
    38    22    21   ar
    39    23    22   ar
    40    23    43    1
    41    24    23   ar
    42    24    19   ar
    43    24    44    1
    44    25    22    1
    45    26    25    1
    46    27    25    2
@<TRIPOS>MOLECULE
mol_166_akc_s00044_020_02619_z
>162.sdf
 40 42 0 0 0
SMALL
GASTEIGER

@<TRIPOS>ATOM
      1 C           2.9407    1.4335    0.4739 C.3     1  UNL1        0.0788
      2 O           2.5264    0.2044   -0.1102 O.3     1  UNL1       -0.4951
      3 C           3.2427   -0.2345   -1.1893 C.ar    1  UNL1        0.1201
      4 C           4.3413    0.4054   -1.7596 C.ar    1  UNL1       -0.0193
      5 C           4.9744   -0.1493   -2.8787 C.ar    1  UNL1       -0.0491
      6 C           4.5272   -1.3547   -3.4354 C.ar    1  UNL1        0.0012
      7 C           3.4267   -1.9952   -2.8552 C.ar    1  UNL1       -0.0491
      8 C           2.7915   -1.4364   -1.7413 C.ar    1  UNL1       -0.0193
      9 C           5.2160   -1.8998   -4.5975 C.ar    1  UNL1        0.0803
     10 C           5.3823   -3.2483   -4.8334 C.ar    1  UNL1        0.0049
     11 S           6.3141   -3.4830   -6.2475 S.2     1  UNL1       -0.0586
     12 C           6.3961   -1.7712   -6.4778 C.ar    1  UNL1        0.1783
     13 N           7.0478   -1.2917   -7.5730 N.pl3   1  UNL1       -0.2150
     14 N           6.8050   -0.0590   -8.0934 N.2     1  UNL1       -0.1851
     15 C           7.4223    0.3304   -9.1715 C.2     1  UNL1        0.0634
     16 C           8.4805   -0.4718   -9.9065 C.3     1  UNL1       -0.0203
     17 C           7.0667    1.6828   -9.7354 C.ar    1  UNL1       -0.0011
     18 C           6.0812    2.4543   -9.0992 C.ar    1  UNL1       -0.0331
     19 C           5.7502    3.7269   -9.5798 C.ar    1  UNL1        0.0599
     20 CL          4.5345    4.6186   -8.7352 Cl      1  UNL1       -0.0820
     21 C           6.4013    4.2391  -10.7067 C.ar    1  UNL1        0.0593
     22 CL          6.0680    5.8100  -11.3426 Cl      1  UNL1       -0.0820
     23 C           7.3676    3.4691  -11.3560 C.ar    1  UNL1       -0.0414
     24 C           7.6965    2.1963  -10.8771 C.ar    1  UNL1       -0.0514
     25 N           5.7987   -1.0658   -5.5426 N.ar    1  UNL1       -0.2236
     26 H           3.9498    1.3486    0.8904 H       1  UNL1        0.0660
     27 H           2.8772    2.2572   -0.2455 H       1  UNL1        0.0660
     28 H           2.2575    1.6596    1.2975 H       1  UNL1        0.0660
     29 H           4.7318    1.3383   -1.3682 H       1  UNL1        0.0654
     30 H           5.8285    0.3655   -3.3161 H       1  UNL1        0.0625
     31 H           3.0353   -2.9217   -3.2675 H       1  UNL1        0.0625
     32 H           1.9306   -1.9379   -1.3050 H       1  UNL1        0.0654
     33 H           5.0424   -4.0894   -4.2462 H       1  UNL1        0.0716
     34 H           7.4092   -2.0205   -8.1806 H       1  UNL1        0.1765
     35 H           8.1223   -0.7096  -10.9129 H       1  UNL1        0.0293
     36 H           9.4013    0.1159   -9.9747 H       1  UNL1        0.0293
     37 H           8.7450   -1.4070   -9.4146 H       1  UNL1        0.0293
     38 H           5.5690    2.0669   -8.2189 H       1  UNL1        0.0639
     39 H           7.8760    3.8559  -12.2374 H       1  UNL1        0.0633
     40 H           8.4544    1.6341  -11.4150 H       1  UNL1        0.0624
@<TRIPOS>BOND
     1     1    26    1
     2     1    27    1
     3     1    28    1
     4     2     1    1
     5     3     2    1
     6     4     3   ar
     7     4    29    1
     8     5     4   ar
     9     5    30    1
    10     6     5   ar
    11     7     6   ar
    12     7    31    1
    13     8     7   ar
    14     8     3   ar
    15     8    32    1
    16     9     6    1
    17    10     9   ar
    18    10    33    1
    19    11    10   ar
    20    12    11   ar
    21    13    12    1
    22    13    34    1
    23    14    13    1
    24    15    14    2
    25    16    15    1
    26    16    35    1
    27    16    36    1
    28    16    37    1
    29    17    15    1
    30    18    17   ar
    31    18    38    1
    32    19    18   ar
    33    20    19    1
    34    21    19   ar
    35    22    21    1
    36    23    21   ar
    37    23    39    1
    38    24    23   ar
    39    24    17   ar
    40    24    40    1
    41    25    12   ar
    42    25     9   ar
@<TRIPOS>MOLECULE
mol_167_akc_jejmech2020112493
>163.sdf
 46 48 0 0 0
SMALL
GASTEIGER

@<TRIPOS>ATOM
      1 C           1.0461    0.2834   -0.1123 C.3     1  UNL1        0.0790
      2 O           2.4164   -0.0905   -0.0076 O.3     1  UNL1       -0.4914
      3 C           3.0288   -0.4393   -1.1749 C.ar    1  UNL1        0.1624
      4 C           2.6847    0.0448   -2.4444 C.ar    1  UNL1       -0.0091
      5 C           3.3855   -0.3621   -3.6066 C.ar    1  UNL1       -0.0208
      6 C           2.9996    0.0973   -4.9515 C.2     1  UNL1       -0.0477
      7 C           2.4676    1.3069   -5.2014 C.2     1  UNL1        0.0229
      8 C           1.9883    1.8025   -6.5069 C.2     1  UNL1        0.3296
      9 O           2.5150    1.2013   -7.5847 O.3     1  UNL1       -0.4775
     10 O           1.1807    2.7152   -6.5765 O.2     1  UNL1       -0.2458
     11 C           4.4314   -1.2860   -3.4905 C.ar    1  UNL1       -0.0468
     12 C           4.7602   -1.7618   -2.2306 C.ar    1  UNL1        0.0161
     13 C           4.0809   -1.3331   -1.1009 C.ar    1  UNL1        0.1669
     14 O           4.5470   -1.9206    0.0515 O.3     1  UNL1       -0.4791
     15 C           5.3178   -3.0759   -0.4067 C.3     1  UNL1        0.1424
     16 C           5.8052   -2.7420   -1.8328 C.3     1  UNL1        0.1256
     17 C           7.2209   -2.2183   -1.7834 C.2     1  UNL1        0.3163
     18 O           7.3847   -0.8792   -1.7383 O.3     1  UNL1       -0.4801
     19 O           8.1873   -2.9722   -1.7663 O.2     1  UNL1       -0.2502
     20 C           4.4691   -4.3521   -0.3369 C.ar    1  UNL1       -0.0025
     21 C           3.1322   -4.3310    0.1172 C.ar    1  UNL1       -0.0096
     22 C           2.3581   -5.4926    0.1390 C.ar    1  UNL1        0.1616
     23 O           1.0475   -5.5837    0.5341 O.3     1  UNL1       -0.4914
     24 C           0.4250   -4.3739    0.9539 C.3     1  UNL1        0.0790
     25 C           2.9379   -6.6928   -0.2780 C.ar    1  UNL1        0.1585
     26 O           2.2073   -7.8499   -0.2715 O.3     1  UNL1       -0.5033
     27 C           4.2581   -6.7505   -0.7034 C.ar    1  UNL1       -0.0161
     28 C           5.0250   -5.5838   -0.7271 C.ar    1  UNL1       -0.0514
     29 H           0.9231    1.2220   -0.6611 H       1  UNL1        0.0660
     30 H           0.4573   -0.5198   -0.5694 H       1  UNL1        0.0660
     31 H           0.6640    0.4469    0.8998 H       1  UNL1        0.0660
     32 H           1.8622    0.7431   -2.5457 H       1  UNL1        0.0661
     33 H           3.1458   -0.6346   -5.7421 H       1  UNL1        0.0626
     34 H           2.2842    2.0207   -4.4041 H       1  UNL1        0.0689
     35 H           3.2585    0.6020   -7.4048 H       1  UNL1        0.2954
     36 H           4.9775   -1.6359   -4.3636 H       1  UNL1        0.0628
     37 H           6.1500   -3.1991    0.2989 H       1  UNL1        0.0796
     38 H           5.7935   -3.6011   -2.5127 H       1  UNL1        0.0504
     39 H           2.7065   -3.3889    0.4481 H       1  UNL1        0.0659
     40 H           0.9127   -3.9700    1.8472 H       1  UNL1        0.0660
     41 H           0.4055   -3.6364    0.1443 H       1  UNL1        0.0660
     42 H          -0.6120   -4.6047    1.2164 H       1  UNL1        0.0660
     43 H           1.3299   -7.5914    0.0725 H       1  UNL1        0.2923
     44 H           4.6854   -7.6997   -1.0138 H       1  UNL1        0.0655
     45 H           6.0608   -5.6483   -1.0565 H       1  UNL1        0.0623
     46 H           6.5670   -0.3458   -1.6938 H       1  UNL1        0.2951
@<TRIPOS>BOND
     1     1    29    1
     2     1    30    1
     3     1    31    1
     4     2     1    1
     5     3     2    1
     6     4     3   ar
     7     4    32    1
     8     5     4   ar
     9     6     5    1
    10     6    33    1
    11     7     6    2
    12     7    34    1
    13     8     7    1
    14     9     8    1
    15     9    35    1
    16    10     8    2
    17    11     5   ar
    18    11    36    1
    19    12    11   ar
    20    13    12   ar
    21    13     3   ar
    22    14    13    1
    23    15    14    1
    24    15    37    1
    25    16    15    1
    26    16    12    1
    27    16    38    1
    28    17    16    1
    29    18    17    1
    30    19    17    2
    31    20    15    1
    32    21    20   ar
    33    21    39    1
    34    22    21   ar
    35    23    22    1
    36    24    23    1
    37    24    40    1
    38    24    41    1
    39    24    42    1
    40    25    22   ar
    41    26    25    1
    42    26    43    1
    43    27    25   ar
    44    27    44    1
    45    28    27   ar
    46    28    20   ar
    47    28    45    1
    48    18    46    1
@<TRIPOS>MOLECULE
mol_168_akc_s00436_020_06832_y
>164.sdf
 55 57 0 0 0
SMALL
GASTEIGER

@<TRIPOS>ATOM
      1 O           1.6530    6.1216   -2.6195 O.3     1  UNL1       -0.3870
      2 C           0.8683    5.2411   -1.8106 C.3     1  UNL1        0.0850
      3 C           1.0734    3.8550   -2.4278 C.3     1  UNL1        0.0176
      4 C           2.5478    3.4862   -2.4726 C.3     1  UNL1       -0.0307
      5 N           2.7388    2.1684   -3.1720 N.4     1  UNL1        0.2293
      6 C           2.2720    2.0446   -4.6107 C.3     1  UNL1       -0.0197
      7 C           2.5787    0.6356   -5.1168 C.3     1  UNL1        0.0061
      8 C           4.0780    0.4175   -5.2843 C.3     1  UNL1        0.0173
      9 N           4.6351    1.4825   -6.1239 N.pl3   1  UNL1       -0.3291
     10 C           4.3884    2.8686   -5.7250 C.3     1  UNL1        0.0173
     11 C           2.8984    3.0987   -5.5193 C.3     1  UNL1        0.0061
     12 C           5.3561    1.1585   -7.2712 C.ar    1  UNL1        0.0416
     13 C           6.5124    1.8302   -7.7356 C.ar    1  UNL1        0.0779
     14 C           7.1159    1.4290   -8.9603 C.ar    1  UNL1       -0.0181
     15 C           6.6306    0.3451   -9.6933 C.ar    1  UNL1        0.1268
     16 C           5.5208   -0.3493   -9.2363 C.ar    1  UNL1       -0.0297
     17 C           4.8964    0.0696   -8.0574 C.ar    1  UNL1       -0.0380
     18 N           7.2926   -0.0588  -10.9383 N.pl3   1  UNL1        0.0564
     19 O           8.2408    0.6337  -11.3317 O.2     1  UNL1       -0.1261
     20 O           6.8621   -1.0643  -11.5171 O.2     1  UNL1       -0.1261
     21 C           7.2355    2.9664   -7.0394 C.3     1  UNL1        0.4192
     22 F           6.9671    3.1212   -5.7139 F       1  UNL1       -0.1658
     23 F           8.5917    2.8340   -7.1022 F       1  UNL1       -0.1658
     24 F           6.9563    4.1696   -7.6175 F       1  UNL1       -0.1658
     25 C          -0.5869    5.6901   -1.7420 C.ar    1  UNL1       -0.0188
     26 C          -1.6516    4.7785   -1.6962 C.ar    1  UNL1       -0.0534
     27 C          -2.9698    5.2253   -1.5945 C.ar    1  UNL1       -0.0261
     28 C          -3.2325    6.5856   -1.5275 C.ar    1  UNL1        0.1234
     29 F          -4.4977    7.0110   -1.4289 F       1  UNL1       -0.2055
     30 C          -2.1996    7.5114   -1.5475 C.ar    1  UNL1       -0.0261
     31 C          -0.8786    7.0636   -1.6416 C.ar    1  UNL1       -0.0534
     32 H           1.0566    6.6189   -3.2096 H       1  UNL1        0.2102
     33 H           1.2832    5.2593   -0.7955 H       1  UNL1        0.0645
     34 H           0.5364    3.0800   -1.8713 H       1  UNL1        0.0345
     35 H           0.6651    3.8802   -3.4447 H       1  UNL1        0.0345
     36 H           3.1801    4.2164   -2.9836 H       1  UNL1        0.0815
     37 H           2.9419    3.3454   -1.4601 H       1  UNL1        0.0815
     38 H           3.7434    1.9528   -3.1099 H       1  UNL1        0.2016
     39 H           2.2726    1.4408   -2.6114 H       1  UNL1        0.2016
     40 H           1.1846    2.1691   -4.5886 H       1  UNL1        0.0851
     41 H           2.1555   -0.1184   -4.4435 H       1  UNL1        0.0335
     42 H           2.0849    0.5016   -6.0891 H       1  UNL1        0.0335
     43 H           4.5778    0.4397   -4.3091 H       1  UNL1        0.0466
     44 H           4.2569   -0.5931   -5.6661 H       1  UNL1        0.0466
     45 H           4.7295    3.5881   -6.4753 H       1  UNL1        0.0466
     46 H           4.9174    3.0767   -4.7874 H       1  UNL1        0.0466
     47 H           2.4001    3.0530   -6.4969 H       1  UNL1        0.0335
     48 H           2.7254    4.1130   -5.1449 H       1  UNL1        0.0335
     49 H           7.9919    1.9750   -9.3193 H       1  UNL1        0.0646
     50 H           5.1174   -1.2015   -9.7798 H       1  UNL1        0.0641
     51 H           3.9965   -0.4750   -7.7755 H       1  UNL1        0.0637
     52 H          -1.4990    3.7045   -1.7227 H       1  UNL1        0.0622
     53 H          -3.7966    4.5211   -1.5559 H       1  UNL1        0.0646
     54 H          -2.4241    8.5706   -1.4764 H       1  UNL1        0.0646
     55 H          -0.0830    7.8087   -1.6269 H       1  UNL1        0.0622
@<TRIPOS>UNITY_ATOM_ATTR
5 1
charge 1
@<TRIPOS>BOND
     1     1    32    1
     2     3     2    1
     3     3    34    1
     4     3    35    1
     5     4     3    1
     6     4    36    1
     7     4    37    1
     8     5     4    1
     9     5    38    1
    10     5    39    1
    11     6     5    1
    12     6    40    1
    13     7     6    1
    14     7    41    1
    15     7    42    1
    16     8     7    1
    17     8    43    1
    18     8    44    1
    19     9     8    1
    20    10     9    1
    21    10    45    1
    22    10    46    1
    23    11    10    1
    24    11     6    1
    25    11    47    1
    26    11    48    1
    27    12     9    1
    28    13    12   ar
    29    14    13   ar
    30    14    49    1
    31    15    14   ar
    32    16    15   ar
    33    16    50    1
    34    17    16   ar
    35    17    12   ar
    36    17    51    1
    37    18    15    1
    38    19    18    2
    39    20    18    2
    40    21    13    1
    41    22    21    1
    42    23    21    1
    43    24    21    1
    44    25     2    1
    45    26    25   ar
    46    26    52    1
    47    27    26   ar
    48    27    53    1
    49    28    27   ar
    50    29    28    1
    51    30    28   ar
    52    30    54    1
    53    31    30   ar
    54    31    25   ar
    55    31    55    1
    56     2    33    1
    57     2     1    1
@<TRIPOS>MOLECULE
mol_169_akc_acsjmedchem0c00705
>165.sdf
 55 58 0 0 0
SMALL
GASTEIGER

@<TRIPOS>ATOM
      1 C           2.5336    1.5150    5.7581 C.3     1  UNL1        0.0368
      2 O           2.3988    1.1474    4.3907 O.3     1  UNL1       -0.3798
      3 C           1.1048    0.6331    4.0569 C.3     1  UNL1        0.0585
      4 C           1.0417    0.4860    2.5314 C.3     1  UNL1       -0.0249
      5 C           1.9374   -0.6390    2.0099 C.3     1  UNL1       -0.0322
      6 C           1.6947   -1.9756    2.7251 C.3     1  UNL1        0.0236
      7 C           1.7756   -1.8059    4.2441 C.3     1  UNL1       -0.0322
      8 C           0.8313   -0.7097    4.7435 C.3     1  UNL1       -0.0249
      9 N           0.4087   -2.5391    2.3545 N.am    1  UNL1       -0.3071
     10 C           0.1629   -3.1321    1.1380 C.2     1  UNL1        0.2663
     11 O           1.0273   -3.4294    0.3166 O.2     1  UNL1       -0.2684
     12 C          -1.2855   -3.3628    0.8539 C.ar    1  UNL1        0.1694
     13 C          -1.6824   -3.9592   -0.3330 C.ar    1  UNL1        0.1735
     14 O          -0.7805   -4.3824   -1.2856 O.3     1  UNL1       -0.5028
     15 C          -3.0409   -4.1147   -0.5759 C.ar    1  UNL1        0.1166
     16 C          -3.9666   -3.6899    0.4061 C.ar    1  UNL1        0.0301
     17 C          -5.3353   -3.9320    0.1159 C.ar    1  UNL1       -0.0490
     18 C          -5.7358   -4.4561   -1.1080 C.ar    1  UNL1       -0.0429
     19 C          -4.7547   -4.7837   -2.0115 C.ar    1  UNL1        0.0284
     20 N          -3.4416   -4.6447   -1.7546 N.ar    1  UNL1       -0.2512
     21 C          -3.4686   -3.0404    1.5775 C.ar    1  UNL1        0.0847
     22 N          -2.1414   -2.8830    1.7978 N.ar    1  UNL1       -0.2376
     23 C          -4.3345   -2.3393    2.5748 C.ar    1  UNL1        0.0426
     24 C          -4.1395   -2.3964    3.9765 C.ar    1  UNL1        0.1293
     25 O          -3.0916   -3.1434    4.4647 O.3     1  UNL1       -0.4945
     26 C          -2.5154   -2.6605    5.6791 C.3     1  UNL1        0.0788
     27 C          -5.0319   -1.7383    4.8446 C.ar    1  UNL1       -0.0193
     28 C          -6.0915   -0.9821    4.3484 C.ar    1  UNL1       -0.0583
     29 C          -6.2598   -0.8559    2.9795 C.ar    1  UNL1       -0.0609
     30 C          -5.3813   -1.5070    2.1119 C.ar    1  UNL1       -0.0490
     31 H           1.6517    2.0546    6.1172 H       1  UNL1        0.0524
     32 H           2.7086    0.6267    6.3715 H       1  UNL1        0.0524
     33 H           3.4051    2.1676    5.8543 H       1  UNL1        0.0524
     34 H           0.3492    1.3677    4.3617 H       1  UNL1        0.0596
     35 H           0.0065    0.2956    2.2253 H       1  UNL1        0.0291
     36 H           1.3533    1.4243    2.0558 H       1  UNL1        0.0291
     37 H           1.7839   -0.7477    0.9272 H       1  UNL1        0.0284
     38 H           2.9897   -0.3518    2.1435 H       1  UNL1        0.0284
     39 H           2.4625   -2.6891    2.4027 H       1  UNL1        0.0498
     40 H           1.5298   -2.7501    4.7452 H       1  UNL1        0.0284
     41 H           2.8063   -1.5548    4.5268 H       1  UNL1        0.0284
     42 H           0.9329   -0.6259    5.8292 H       1  UNL1        0.0291
     43 H          -0.2088   -0.9985    4.5555 H       1  UNL1        0.0291
     44 H          -0.4351   -2.2983    2.8758 H       1  UNL1        0.1493
     45 H           0.1304   -4.1615   -0.9901 H       1  UNL1        0.2923
     46 H          -6.1101   -3.7024    0.8431 H       1  UNL1        0.0625
     47 H          -6.7835   -4.5959   -1.3483 H       1  UNL1        0.0633
     48 H          -4.9946   -5.1822   -2.9931 H       1  UNL1        0.0830
     49 H          -2.3426   -1.5781    5.6442 H       1  UNL1        0.0660
     50 H          -3.1371   -2.9241    6.5412 H       1  UNL1        0.0660
     51 H          -1.5448   -3.1474    5.8134 H       1  UNL1        0.0660
     52 H          -4.9316   -1.8132    5.9232 H       1  UNL1        0.0654
     53 H          -6.7762   -0.4867    5.0317 H       1  UNL1        0.0619
     54 H          -7.0727   -0.2548    2.5799 H       1  UNL1        0.0618
     55 H          -5.5268   -1.3546    1.0434 H       1  UNL1        0.0625
@<TRIPOS>BOND
     1     1    31    1
     2     1    32    1
     3     1    33    1
     4     2     1    1
     5     4     3    1
     6     4    35    1
     7     4    36    1
     8     5     4    1
     9     5    37    1
    10     5    38    1
    11     6     5    1
    12     7     6    1
    13     7    40    1
    14     7    41    1
    15     8     7    1
    16     8     3    1
    17     8    42    1
    18     8    43    1
    19     9    44    1
    20    10     9   am
    21    11    10    2
    22    12    10    1
    23    13    12   ar
    24    14    13    1
    25    14    45    1
    26    15    13   ar
    27    16    15   ar
    28    17    16   ar
    29    17    46    1
    30    18    17   ar
    31    18    47    1
    32    19    18   ar
    33    19    48    1
    34    20    19   ar
    35    20    15   ar
    36    21    16   ar
    37    22    21   ar
    38    22    12   ar
    39    23    21    1
    40    24    23   ar
    41    25    24    1
    42    26    25    1
    43    26    49    1
    44    26    50    1
    45    26    51    1
    46    27    24   ar
    47    27    52    1
    48    28    27   ar
    49    28    53    1
    50    29    28   ar
    51    29    54    1
    52    30    29   ar
    53    30    23   ar
    54    30    55    1
    55     3    34    1
    56     3     2    1
    57     6     9    1
    58     6    39    1
@<TRIPOS>MOLECULE
mol_16_akc_jejmech200702010
>16.sdf
 51 55 0 0 0
SMALL
GASTEIGER

@<TRIPOS>ATOM
      1 O           3.3677   -2.1166    1.1936 O.2     1  UNL1       -0.2699
      2 C           3.3279   -1.0242    0.6490 C.2     1  UNL1        0.2483
      3 N           2.9552    0.1510    1.2901 N.am    1  UNL1       -0.2814
      4 C           2.3191    0.1395    2.5429 C.ar    1  UNL1        0.0357
      5 C           2.7109    1.0431    3.5380 C.ar    1  UNL1       -0.0145
      6 C           2.1107    1.0396    4.7970 C.ar    1  UNL1        0.0734
      7 N           2.5671    1.8479    5.7844 N.ar    1  UNL1       -0.2466
      8 C           1.9806    1.8089    7.0046 C.ar    1  UNL1        0.0734
      9 C           0.8753    0.9733    7.2523 C.ar    1  UNL1        0.0011
     10 C           0.2626    0.9456    8.5031 C.ar    1  UNL1       -0.0508
     11 C           0.7475    1.7396    9.5334 C.ar    1  UNL1       -0.0398
     12 C           1.8549    2.5660    9.3440 C.ar    1  UNL1        0.0357
     13 N           2.3937    3.3778   10.3810 N.am    1  UNL1       -0.2814
     14 C           1.9331    3.4178   11.6942 C.2     1  UNL1        0.2483
     15 O           1.0232    2.7343   12.1521 O.2     1  UNL1       -0.2699
     16 C           2.5925    4.3538   12.6500 C.ar    1  UNL1        0.0370
     17 C           3.2479    5.5280   12.2661 C.ar    1  UNL1       -0.0496
     18 C           3.7424    6.3988   13.2477 C.ar    1  UNL1       -0.0610
     19 C           3.5833    6.1068   14.6042 C.ar    1  UNL1       -0.0617
     20 C           2.9400    4.9370   14.9930 C.ar    1  UNL1       -0.0610
     21 C           2.4499    4.0669   14.0206 C.ar    1  UNL1       -0.0496
     22 C           2.4502    2.5902    8.0684 C.ar    1  UNL1       -0.0145
     23 C           0.4012    0.1536    6.2335 C.ar    1  UNL1       -0.0434
     24 C           1.0292    0.1583    4.9949 C.ar    1  UNL1        0.0011
     25 C           0.5960   -0.7101    3.9854 C.ar    1  UNL1       -0.0508
     26 C           1.2633   -0.7402    2.7710 C.ar    1  UNL1       -0.0398
     27 C           3.6734   -0.9313   -0.7971 C.ar    1  UNL1        0.0370
     28 C           3.5365   -2.1079   -1.5511 C.ar    1  UNL1       -0.0496
     29 C           3.7581   -2.0969   -2.9287 C.ar    1  UNL1       -0.0610
     30 C           4.1264   -0.9139   -3.5587 C.ar    1  UNL1       -0.0617
     31 C           4.2934    0.2542   -2.8131 C.ar    1  UNL1       -0.0610
     32 C           4.0723    0.2490   -1.4324 C.ar    1  UNL1       -0.0496
     33 H           3.1843    1.0539    0.8975 H       1  UNL1        0.1551
     34 H           3.5510    1.7100    3.3694 H       1  UNL1        0.0657
     35 H          -0.5945    0.3037    8.6956 H       1  UNL1        0.0625
     36 H           0.2218    1.6711   10.4813 H       1  UNL1        0.0636
     37 H           3.2124    3.9216   10.1444 H       1  UNL1        0.1551
     38 H           3.3443    5.8125   11.2250 H       1  UNL1        0.0625
     39 H           4.2333    7.3248   12.9560 H       1  UNL1        0.0618
     40 H           3.9493    6.7974   15.3603 H       1  UNL1        0.0618
     41 H           2.7999    4.7064   16.0456 H       1  UNL1        0.0618
     42 H           1.9272    3.1642   14.3377 H       1  UNL1        0.0625
     43 H           3.3129    3.2243    7.8796 H       1  UNL1        0.0657
     44 H          -0.4442   -0.5055    6.4132 H       1  UNL1        0.0631
     45 H          -0.2467   -1.3791    4.1427 H       1  UNL1        0.0625
     46 H           0.9283   -1.4253    1.9957 H       1  UNL1        0.0636
     47 H           3.2397   -3.0375   -1.0656 H       1  UNL1        0.0625
     48 H           3.6330   -3.0126   -3.5018 H       1  UNL1        0.0618
     49 H           4.2895   -0.9029   -4.6328 H       1  UNL1        0.0618
     50 H           4.5958    1.1720   -3.3118 H       1  UNL1        0.0618
     51 H           4.2311    1.1702   -0.8831 H       1  UNL1        0.0625
@<TRIPOS>BOND
     1     2     1    2
     2     3     2   am
     3     3    33    1
     4     4     3    1
     5     5     4   ar
     6     5    34    1
     7     6     5   ar
     8     7     6   ar
     9     8     7   ar
    10     9     8   ar
    11    10     9   ar
    12    10    35    1
    13    11    10   ar
    14    11    36    1
    15    12    11   ar
    16    13    12    1
    17    13    37    1
    18    14    13   am
    19    15    14    2
    20    16    14    1
    21    17    16   ar
    22    17    38    1
    23    18    17   ar
    24    18    39    1
    25    19    18   ar
    26    19    40    1
    27    20    19   ar
    28    20    41    1
    29    21    20   ar
    30    21    16   ar
    31    21    42    1
    32    22    12   ar
    33    22     8   ar
    34    22    43    1
    35    23     9   ar
    36    23    44    1
    37    24    23   ar
    38    24     6   ar
    39    25    24   ar
    40    25    45    1
    41    26    25   ar
    42    26     4   ar
    43    26    46    1
    44    27     2    1
    45    28    27   ar
    46    28    47    1
    47    29    28   ar
    48    29    48    1
    49    30    29   ar
    50    30    49    1
    51    31    30   ar
    52    31    50    1
    53    32    31   ar
    54    32    27   ar
    55    32    51    1
@<TRIPOS>MOLECULE
mol_170_akc_ijms21186839
>166.sdf
 47 50 0 0 0
SMALL
GASTEIGER

@<TRIPOS>ATOM
      1 C           1.7712   -0.9758   -1.9354 C.3     1  UNL1        0.1346
      2 O           2.0026   -2.3582   -2.2038 O.3     1  UNL1       -0.4858
      3 C           1.1392   -2.9773   -3.0644 C.ar    1  UNL1        0.1211
      4 C           0.0474   -2.3899   -3.7066 C.ar    1  UNL1       -0.0199
      5 C          -0.7416   -3.1460   -4.5824 C.ar    1  UNL1       -0.0583
      6 C          -0.4458   -4.4878   -4.8128 C.ar    1  UNL1       -0.0615
      7 C           0.6362   -5.0798   -4.1664 C.ar    1  UNL1       -0.0583
      8 C           1.4222   -4.3251   -3.2953 C.ar    1  UNL1       -0.0199
      9 C           2.8197   -0.4307   -1.0328 C.ar    1  UNL1        0.1204
     10 C           4.0701    0.0671   -1.3291 C.ar    1  UNL1        0.0578
     11 N           4.5575    0.5505   -0.1318 N.ar    1  UNL1       -0.2191
     12 N           3.6626    0.2821    0.8420 N.ar    1  UNL1       -0.0604
     13 N           2.6062   -0.3120    0.3093 N.ar    1  UNL1       -0.1307
     14 C           5.7770    1.2404    0.0963 C.ar    1  UNL1        0.0756
     15 C           5.9711    2.1261    1.1755 C.ar    1  UNL1        0.0200
     16 C           4.9614    2.4447    2.2157 C.2     1  UNL1        0.0547
     17 N           4.9344    3.6167    2.7730 N.2     1  UNL1       -0.1899
     18 N           3.9618    3.7832    3.7065 N.pl3   1  UNL1       -0.2378
     19 C           3.8783    5.0281    4.3653 C.ar    1  UNL1        0.0483
     20 C           4.5347    6.1698    3.8859 C.ar    1  UNL1       -0.0391
     21 C           4.3733    7.4109    4.5071 C.ar    1  UNL1       -0.0600
     22 C           3.5340    7.5320    5.6108 C.ar    1  UNL1       -0.0616
     23 C           2.8539    6.4143    6.0885 C.ar    1  UNL1       -0.0600
     24 C           3.0176    5.1731    5.4616 C.ar    1  UNL1       -0.0391
     25 C           7.1800    2.8444    1.2634 C.ar    1  UNL1       -0.0511
     26 C           8.1947    2.6712    0.3238 C.ar    1  UNL1       -0.0610
     27 C           8.0167    1.7780   -0.7239 C.ar    1  UNL1       -0.0597
     28 C           6.8160    1.0746   -0.8449 C.ar    1  UNL1       -0.0356
     29 H           0.7911   -0.8456   -1.4598 H       1  UNL1        0.0764
     30 H           1.7935   -0.4041   -2.8721 H       1  UNL1        0.0764
     31 H          -0.2245   -1.3512   -3.5517 H       1  UNL1        0.0654
     32 H          -1.5900   -2.6849   -5.0814 H       1  UNL1        0.0619
     33 H          -1.0583   -5.0715   -5.4947 H       1  UNL1        0.0618
     34 H           0.8696   -6.1270   -4.3388 H       1  UNL1        0.0619
     35 H           2.2657   -4.7916   -2.7907 H       1  UNL1        0.0654
     36 H           4.5876    0.1860   -2.2681 H       1  UNL1        0.0851
     37 H           4.2351    1.6773    2.5171 H       1  UNL1        0.0852
     38 H           3.6727    2.9876    4.2724 H       1  UNL1        0.1744
     39 H           5.1781    6.0945    3.0126 H       1  UNL1        0.0636
     40 H           4.8972    8.2798    4.1188 H       1  UNL1        0.0618
     41 H           3.4010    8.4980    6.0899 H       1  UNL1        0.0618
     42 H           2.1877    6.5067    6.9416 H       1  UNL1        0.0618
     43 H           2.4633    4.3199    5.8392 H       1  UNL1        0.0636
     44 H           7.3343    3.5597    2.0714 H       1  UNL1        0.0625
     45 H           9.1186    3.2375    0.4131 H       1  UNL1        0.0618
     46 H           8.8115    1.6314   -1.4520 H       1  UNL1        0.0618
     47 H           6.7295    0.3770   -1.6752 H       1  UNL1        0.0639
@<TRIPOS>BOND
     1     1    29    1
     2     1    30    1
     3     2     1    1
     4     3     2    1
     5     4     3   ar
     6     4    31    1
     7     5     4   ar
     8     5    32    1
     9     6     5   ar
    10     6    33    1
    11     7     6   ar
    12     7    34    1
    13     8     7   ar
    14     8     3   ar
    15     8    35    1
    16     9     1    1
    17    10     9   ar
    18    10    36    1
    19    11    10   ar
    20    12    11   ar
    21    13    12   ar
    22    13     9   ar
    23    14    11    1
    24    15    14   ar
    25    16    15    1
    26    16    37    1
    27    17    16    2
    28    18    17    1
    29    18    38    1
    30    19    18    1
    31    20    19   ar
    32    20    39    1
    33    21    20   ar
    34    21    40    1
    35    22    21   ar
    36    22    41    1
    37    23    22   ar
    38    23    42    1
    39    24    23   ar
    40    24    19   ar
    41    24    43    1
    42    25    15   ar
    43    25    44    1
    44    26    25   ar
    45    26    45    1
    46    27    26   ar
    47    27    46    1
    48    28    27   ar
    49    28    14   ar
    50    28    47    1
@<TRIPOS>MOLECULE
mol_171_akc_d0md00083c
>167.sdf
 34 35 0 0 0
SMALL
GASTEIGER

@<TRIPOS>ATOM
      1 C          -0.2639    1.3638   -2.3388 C.3     1  UNL1        0.0191
      2 N          -0.2190    0.5498   -1.1450 N.ar    1  UNL1       -0.2708
      3 C           0.1672    0.9737    0.1183 C.ar    1  UNL1        0.1522
      4 C           0.5931    2.3696    0.4641 C.3     1  UNL1        0.1472
      5 O           1.8249    2.6184   -0.2127 O.3     1  UNL1       -0.4843
      6 C           2.4267    3.8267    0.0185 C.ar    1  UNL1        0.1212
      7 C           1.9733    4.8216    0.8889 C.ar    1  UNL1       -0.0181
      8 C           2.6744    6.0285    1.0081 C.ar    1  UNL1       -0.0334
      9 C           3.8363    6.2338    0.2599 C.ar    1  UNL1        0.0881
     10 C           4.3009    5.2457   -0.6084 C.ar    1  UNL1       -0.0334
     11 C           3.5962    4.0438   -0.7186 C.ar    1  UNL1       -0.0181
     12 S           4.6581    7.8109    0.3226 S.O2    1  UNL1       -0.0059
     13 C           5.8225    7.6425    1.6474 C.3     1  UNL1        0.0596
     14 O           5.4024    7.9624   -0.9137 O.2     1  UNL1       -0.1696
     15 O           3.6681    8.7959    0.7167 O.2     1  UNL1       -0.1696
     16 N           0.0763   -0.0173    0.9902 N.ar    1  UNL1       -0.2299
     17 C          -0.3578   -1.1091    0.2882 C.ar    1  UNL1        0.1257
     18 C          -0.5500   -0.7783   -1.0268 C.ar    1  UNL1        0.3677
     19 N          -1.0080   -1.6260   -2.0759 N.pl3   1  UNL1        0.1004
     20 O          -1.1469   -1.1322   -3.2008 O.co2   1  UNL1       -0.5747
     21 O          -1.2398   -2.8016   -1.7728 O.2     1  UNL1        0.0431
     22 H           0.4048    0.9274   -3.0851 H       1  UNL1        0.0458
     23 H          -1.2958    1.3947   -2.6988 H       1  UNL1        0.0458
     24 H           0.0607    2.3827   -2.1256 H       1  UNL1        0.0458
     25 H          -0.1776    3.0833    0.1505 H       1  UNL1        0.0779
     26 H           0.7358    2.4296    1.5495 H       1  UNL1        0.0779
     27 H           1.0718    4.7018    1.4819 H       1  UNL1        0.0655
     28 H           2.2938    6.8057    1.6684 H       1  UNL1        0.0638
     29 H           5.1889    5.4047   -1.2164 H       1  UNL1        0.0638
     30 H           3.9531    3.2747   -1.4008 H       1  UNL1        0.0655
     31 H           6.5161    6.8321    1.4161 H       1  UNL1        0.0468
     32 H           6.3708    8.5841    1.7329 H       1  UNL1        0.0468
     33 H           5.2843    7.4445    2.5760 H       1  UNL1        0.0468
     34 H          -0.5123   -2.0670    0.7707 H       1  UNL1        0.0917
@<TRIPOS>UNITY_ATOM_ATTR
19 1
charge 1
20 1
charge -1
@<TRIPOS>BOND
     1     1    22    1
     2     1    23    1
     3     1    24    1
     4     2     1    1
     5     3     2   ar
     6     4     3    1
     7     4    25    1
     8     4    26    1
     9     5     4    1
    10     6     5    1
    11     7     6   ar
    12     7    27    1
    13     8     7   ar
    14     8    28    1
    15     9     8   ar
    16    10     9   ar
    17    10    29    1
    18    11    10   ar
    19    11     6   ar
    20    11    30    1
    21    12     9    1
    22    13    12    1
    23    13    31    1
    24    13    32    1
    25    13    33    1
    26    14    12    2
    27    15    12    2
    28    16     3   ar
    29    17    16   ar
    30    17    34    1
    31    18    17   ar
    32    18     2   ar
    33    19    18    1
    34    20    19    1
    35    21    19    2
@<TRIPOS>MOLECULE
mol_172_akc_d0md00083c
>168.sdf
 22 23 0 0 0
SMALL
GASTEIGER

@<TRIPOS>ATOM
      1 C           3.3801   -0.3447    1.1405 C.3     1  UNL1       -0.0619
      2 C           2.4087    0.0580    0.0397 C.3     1  UNL1       -0.0168
      3 C           2.9564    1.1885   -0.8340 C.3     1  UNL1        0.1209
      4 C           1.9600    1.6074   -1.9467 C.3     1  UNL1        0.0646
      5 N           1.8208    3.0083   -1.6615 N.ar    1  UNL1       -0.2952
      6 C           1.1544    4.0746   -2.1309 C.ar    1  UNL1        0.0586
      7 C           1.5526    5.0890   -1.2591 C.ar    1  UNL1        0.2357
      8 N           2.4320    4.6213   -0.2804 N.ar    1  UNL1       -0.1709
      9 C           2.5442    3.3590   -0.5796 C.ar    1  UNL1        0.3007
     10 O           3.2154    2.3709   -0.0146 O.3     1  UNL1       -0.4584
     11 N           1.1379    6.4753   -1.2915 N.pl3   1  UNL1        0.0767
     12 O           0.3225    6.7875   -2.1722 O.2     1  UNL1       -0.1246
     13 O           1.6213    7.2452   -0.4513 O.2     1  UNL1       -0.1246
     14 H           3.0076   -1.2295    1.6667 H       1  UNL1        0.0231
     15 H           4.3660   -0.5841    0.7297 H       1  UNL1        0.0231
     16 H           3.4982    0.4572    1.8761 H       1  UNL1        0.0231
     17 H           2.1926   -0.8152   -0.5866 H       1  UNL1        0.0299
     18 H           1.4684    0.3687    0.5111 H       1  UNL1        0.0299
     19 H           3.9101    0.8857   -1.2846 H       1  UNL1        0.0752
     20 H           2.3809    1.4850   -2.9481 H       1  UNL1        0.0530
     21 H           0.9806    1.1276   -1.8719 H       1  UNL1        0.0530
     22 H           0.4875    4.0652   -2.9815 H       1  UNL1        0.0850
@<TRIPOS>BOND
     1     1    14    1
     2     1    15    1
     3     1    16    1
     4     2     1    1
     5     2    17    1
     6     2    18    1
     7     3     2    1
     8     3    19    1
     9     4     3    1
    10     4    20    1
    11     4    21    1
    12     5     4    1
    13     6     5   ar
    14     6    22    1
    15     7     6   ar
    16     8     7   ar
    17     9     8   ar
    18     9     5   ar
    19    10     9    1
    20    10     3    1
    21    11     7    1
    22    12    11    2
    23    13    11    2
@<TRIPOS>MOLECULE
mol_173_akc_d0md00083c
>168_2.sdf
 22 23 0 0 0
SMALL
GASTEIGER

@<TRIPOS>ATOM
      1 C           3.8345    1.4606   -2.1585 C.3     1  UNL1       -0.0619
      2 C           4.1617    0.0381   -1.7309 C.3     1  UNL1       -0.0168
      3 C           2.9240   -0.7598   -1.3165 C.3     1  UNL1        0.1209
      4 C           3.2972   -2.1979   -0.8731 C.3     1  UNL1        0.0646
      5 N           2.4334   -2.9679   -1.7226 N.ar    1  UNL1       -0.2952
      6 C           2.1570   -4.2556   -1.9747 C.ar    1  UNL1        0.0586
      7 C           1.2195   -4.1684   -3.0030 C.ar    1  UNL1        0.2357
      8 N           0.9690   -2.8437   -3.3707 N.ar    1  UNL1       -0.1709
      9 C           1.7428   -2.1736   -2.5648 C.ar    1  UNL1        0.3007
     10 O           1.9924   -0.8807   -2.4380 O.3     1  UNL1       -0.4584
     11 N           0.5648   -5.2738   -3.6692 N.pl3   1  UNL1        0.0767
     12 O           0.8856   -6.4117   -3.2960 O.2     1  UNL1       -0.1246
     13 O          -0.2608   -5.0099   -4.5523 O.2     1  UNL1       -0.1246
     14 H           4.7586    2.0046   -2.3810 H       1  UNL1        0.0231
     15 H           3.2132    1.4726   -3.0591 H       1  UNL1        0.0231
     16 H           3.3077    2.0001   -1.3654 H       1  UNL1        0.0231
     17 H           4.6644   -0.4622   -2.5673 H       1  UNL1        0.0299
     18 H           4.8678    0.0721   -0.8929 H       1  UNL1        0.0299
     19 H           2.3946   -0.2438   -0.5052 H       1  UNL1        0.0752
     20 H           4.3341   -2.4716   -1.0863 H       1  UNL1        0.0530
     21 H           3.0471   -2.3913    0.1728 H       1  UNL1        0.0530
     22 H           2.6016   -5.0981   -1.4625 H       1  UNL1        0.0850
@<TRIPOS>BOND
     1     1    14    1
     2     1    15    1
     3     1    16    1
     4     2     1    1
     5     2    17    1
     6     2    18    1
     7     4     3    1
     8     4    20    1
     9     4    21    1
    10     5     4    1
    11     6     5   ar
    12     6    22    1
    13     7     6   ar
    14     8     7   ar
    15     9     8   ar
    16     9     5   ar
    17    10     9    1
    18    10     3    1
    19    11     7    1
    20    12    11    2
    21    13    11    2
    22     3    19    1
    23     3     2    1
@<TRIPOS>MOLECULE
mol_174_akc_d0md00083c
>169.sdf
 39 41 0 0 0
SMALL
GASTEIGER

@<TRIPOS>ATOM
      1 C           1.6016   -0.6014   -0.1924 C.3     1  UNL1        0.0788
      2 O           2.7000   -0.1947    0.6136 O.3     1  UNL1       -0.4951
      3 C           3.2836    1.0027    0.3048 C.ar    1  UNL1        0.1201
      4 C           2.8901    1.8712   -0.7131 C.ar    1  UNL1       -0.0197
      5 C           3.5894    3.0639   -0.9338 C.ar    1  UNL1       -0.0551
      6 C           4.6953    3.3988   -0.1448 C.ar    1  UNL1       -0.0471
      7 C           5.4756    4.6625   -0.4055 C.3     1  UNL1       -0.0273
      8 C           4.9355    5.8547    0.3897 C.3     1  UNL1       -0.0415
      9 C           5.7774    7.1373    0.2277 C.3     1  UNL1        0.0117
     10 C           7.2178    6.9466    0.7354 C.3     1  UNL1        0.0971
     11 O           7.9853    8.1502    0.7378 O.3     1  UNL1       -0.4632
     12 C           7.3816    9.1991    1.2789 C.ar    1  UNL1        0.3003
     13 N           8.0057   10.2513    1.7478 N.ar    1  UNL1       -0.1709
     14 C           6.9939   11.0905    2.1720 C.ar    1  UNL1        0.2357
     15 C           5.7479   10.5390    1.9293 C.ar    1  UNL1        0.0585
     16 N           6.0265    9.3285    1.3668 N.ar    1  UNL1       -0.2984
     17 C           5.0935    8.3055    0.9594 C.3     1  UNL1        0.0335
     18 N           7.2833   12.3712    2.7855 N.pl3   1  UNL1        0.0767
     19 O           6.3062   13.0787    3.0687 O.2     1  UNL1       -0.1246
     20 O           8.4675   12.6608    2.9901 O.2     1  UNL1       -0.1246
     21 C           5.0726    2.5344    0.8903 C.ar    1  UNL1       -0.0551
     22 C           4.3729    1.3451    1.1075 C.ar    1  UNL1       -0.0197
     23 H           0.7696    0.1055   -0.1097 H       1  UNL1        0.0660
     24 H           1.9049   -0.7357   -1.2362 H       1  UNL1        0.0660
     25 H           1.2533   -1.5697    0.1800 H       1  UNL1        0.0660
     26 H           2.0475    1.6486   -1.3592 H       1  UNL1        0.0654
     27 H           3.2704    3.7217   -1.7394 H       1  UNL1        0.0621
     28 H           6.5240    4.4667   -0.1553 H       1  UNL1        0.0313
     29 H           5.4593    4.8913   -1.4784 H       1  UNL1        0.0313
     30 H           3.9031    6.0599    0.0757 H       1  UNL1        0.0273
     31 H           4.8834    5.5915    1.4550 H       1  UNL1        0.0273
     32 H           5.8313    7.4044   -0.8369 H       1  UNL1        0.0351
     33 H           7.2311    6.5155    1.7444 H       1  UNL1        0.0701
     34 H           7.7539    6.2525    0.0803 H       1  UNL1        0.0701
     35 H           4.7447   10.8977    2.1135 H       1  UNL1        0.0850
     36 H           4.3473    8.7763    0.3081 H       1  UNL1        0.0497
     37 H           4.5886    7.9679    1.8713 H       1  UNL1        0.0497
     38 H           5.9226    2.7689    1.5270 H       1  UNL1        0.0621
     39 H           4.6851    0.6742    1.9044 H       1  UNL1        0.0654
@<TRIPOS>BOND
     1     1    23    1
     2     1    24    1
     3     1    25    1
     4     2     1    1
     5     3     2    1
     6     4     3   ar
     7     4    26    1
     8     5     4   ar
     9     5    27    1
    10     6     5   ar
    11     7     6    1
    12     7    28    1
    13     7    29    1
    14     8     7    1
    15     8    30    1
    16     8    31    1
    17     9     8    1
    18     9    32    1
    19    10     9    1
    20    10    33    1
    21    10    34    1
    22    11    10    1
    23    12    11    1
    24    13    12   ar
    25    14    13   ar
    26    15    14   ar
    27    15    35    1
    28    16    15   ar
    29    16    12   ar
    30    17    16    1
    31    17     9    1
    32    17    36    1
    33    17    37    1
    34    18    14    1
    35    19    18    2
    36    20    18    2
    37    21     6   ar
    38    21    38    1
    39    22    21   ar
    40    22     3   ar
    41    22    39    1
@<TRIPOS>MOLECULE
mol_175_akc_d0md00083c
>170.sdf
 44 47 0 0 0
SMALL
GASTEIGER

@<TRIPOS>ATOM
      1 F           2.2269   -0.4448   -0.3893 F       1  UNL1       -0.2055
      2 C           0.8928   -0.3636   -0.3073 C.ar    1  UNL1        0.1234
      3 C           0.3108    0.7567    0.2668 C.ar    1  UNL1       -0.0258
      4 C          -1.0818    0.8477    0.3402 C.ar    1  UNL1       -0.0499
      5 C          -1.9124   -0.1713   -0.1703 C.ar    1  UNL1        0.0005
      6 C          -1.2837   -1.3052   -0.7217 C.ar    1  UNL1       -0.0499
      7 C           0.1097   -1.4002   -0.7952 C.ar    1  UNL1       -0.0258
      8 C          -3.3861   -0.0571   -0.1429 C.ar    1  UNL1        0.0710
      9 C          -4.0410    1.1699   -0.2420 C.ar    1  UNL1       -0.0354
     10 C          -5.4322    1.2127   -0.1984 C.ar    1  UNL1       -0.0551
     11 C          -6.1582    0.0304   -0.0708 C.ar    1  UNL1       -0.0291
     12 C          -7.6610    0.0357    0.0132 C.3     1  UNL1       -0.0229
     13 C          -8.3242    0.6366   -1.2354 C.3     1  UNL1       -0.0116
     14 C          -9.8628    0.5800   -1.1770 C.3     1  UNL1        0.1052
     15 C         -10.4833    1.1710   -2.4584 C.3     1  UNL1        0.0025
     16 C         -11.3548    2.4062   -2.3118 C.3     1  UNL1        0.0309
     17 N         -11.5784    2.7988   -0.9520 N.ar    1  UNL1       -0.2986
     18 C         -12.3329    3.8490   -0.5137 C.ar    1  UNL1        0.0585
     19 C         -12.2091    3.8031    0.8631 C.ar    1  UNL1        0.2357
     20 N         -11.4076    2.7468    1.2513 N.ar    1  UNL1       -0.1709
     21 C         -11.0524    2.1667    0.1293 C.ar    1  UNL1        0.3005
     22 O         -10.2943    1.0852    0.0835 O.3     1  UNL1       -0.4602
     23 N         -12.8030    4.7005    1.8267 N.pl3   1  UNL1        0.0767
     24 O         -13.5146    5.6093    1.3740 O.2     1  UNL1       -0.1246
     25 O         -12.5619    4.5042    3.0276 O.2     1  UNL1       -0.1246
     26 C          -5.4294   -1.1496    0.0154 C.ar    1  UNL1        0.0314
     27 N          -4.0773   -1.2188   -0.0278 N.ar    1  UNL1       -0.2547
     28 H           0.9385    1.5521    0.6551 H       1  UNL1        0.0646
     29 H          -1.5125    1.7261    0.8158 H       1  UNL1        0.0625
     30 H          -1.8890   -2.1240   -1.1092 H       1  UNL1        0.0625
     31 H           0.5826   -2.2733   -1.2325 H       1  UNL1        0.0646
     32 H          -3.4870    2.0947   -0.3623 H       1  UNL1        0.0639
     33 H          -5.9356    2.1741   -0.2565 H       1  UNL1        0.0621
     34 H          -8.0285   -0.9879    0.1585 H       1  UNL1        0.0315
     35 H          -7.9447    0.5991    0.9105 H       1  UNL1        0.0315
     36 H          -8.0119    1.6820   -1.3475 H       1  UNL1        0.0304
     37 H          -7.9748    0.1007   -2.1283 H       1  UNL1        0.0304
     38 H         -10.1326   -0.4845   -1.1621 H       1  UNL1        0.0734
     39 H          -9.7052    1.3754   -3.2063 H       1  UNL1        0.0318
     40 H         -11.0890    0.3852   -2.9302 H       1  UNL1        0.0318
     41 H         -10.8955    3.2600   -2.8227 H       1  UNL1        0.0494
     42 H         -12.3360    2.2324   -2.7691 H       1  UNL1        0.0494
     43 H         -12.8718    4.5157   -1.1735 H       1  UNL1        0.0850
     44 H          -5.9230   -2.1114    0.1318 H       1  UNL1        0.0832
@<TRIPOS>BOND
     1     2     1    1
     2     3     2   ar
     3     3    28    1
     4     4     3   ar
     5     4    29    1
     6     5     4   ar
     7     6     5   ar
     8     6    30    1
     9     7     6   ar
    10     7     2   ar
    11     7    31    1
    12     8     5    1
    13     9     8   ar
    14     9    32    1
    15    10     9   ar
    16    10    33    1
    17    11    10   ar
    18    12    11    1
    19    12    34    1
    20    12    35    1
    21    13    12    1
    22    13    36    1
    23    13    37    1
    24    14    13    1
    25    14    38    1
    26    15    14    1
    27    15    39    1
    28    15    40    1
    29    16    15    1
    30    16    41    1
    31    16    42    1
    32    17    16    1
    33    18    17   ar
    34    18    43    1
    35    19    18   ar
    36    20    19   ar
    37    21    20   ar
    38    21    17   ar
    39    22    21    1
    40    22    14    1
    41    23    19    1
    42    24    23    2
    43    25    23    2
    44    26    11   ar
    45    26    44    1
    46    27    26   ar
    47    27     8   ar
@<TRIPOS>MOLECULE
mol_176_akc_d0md00083c
>171.sdf
 38 40 0 0 0
SMALL
GASTEIGER

@<TRIPOS>ATOM
      1 C           3.0710   -1.4434   -0.7021 C.3     1  UNL1       -0.0198
      2 C           2.5955   -0.1117   -0.1149 C.3     1  UNL1        0.1623
      3 C           3.0098    0.0252    1.3581 C.3     1  UNL1        0.1306
      4 O           4.4351    0.0385    1.4675 O.3     1  UNL1       -0.4880
      5 C           4.9474    0.0617    2.7363 C.ar    1  UNL1        0.1209
      6 C           4.2101    0.2274    3.9093 C.ar    1  UNL1       -0.0165
      7 C           4.8450    0.2201    5.1584 C.ar    1  UNL1       -0.0162
      8 C           6.2179    0.0084    5.2481 C.ar    1  UNL1        0.1302
      9 O           6.9454   -0.0653    6.3953 O.3     1  UNL1       -0.4057
     10 C           6.3279   -0.5360    7.5862 C.3     1  UNL1        0.5752
     11 F           5.1360   -1.1387    7.3909 F       1  UNL1       -0.1328
     12 F           7.1516   -1.4391    8.1649 F       1  UNL1       -0.1328
     13 F           6.1621    0.4932    8.4443 F       1  UNL1       -0.1328
     14 C           6.9624   -0.1050    4.0716 C.ar    1  UNL1       -0.0162
     15 C           6.3317   -0.0821    2.8240 C.ar    1  UNL1       -0.0165
     16 C           3.1072    1.0896   -0.9627 C.3     1  UNL1        0.0704
     17 N           1.8586    1.6256   -1.4341 N.ar    1  UNL1       -0.2963
     18 C           1.4246    2.6316   -2.2059 C.ar    1  UNL1        0.0420
     19 CA          0.0392    2.4877   -2.1670 C.ar    1  UNL1        0.1688
     20 N          -0.3363    1.3976   -1.3632 N.ar    1  UNL1       -0.1883
     21 C           0.8099    0.9273   -0.9589 C.ar    1  UNL1        0.2997
     22 O           1.1255   -0.0923   -0.1784 O.3     1  UNL1       -0.4520
     23 C          -0.9554    3.3149   -2.8429 C.2     1  UNL1        0.3569
     24 O          -2.2217    2.8847   -2.5921 O.3     1  UNL1       -0.4760
     25 OXT        -0.7007    4.2747   -3.5488 O.2     1  UNL1       -0.2433
     26 H           4.1632   -1.5016   -0.7442 H       1  UNL1        0.0270
     27 H           2.7014   -2.2842   -0.1042 H       1  UNL1        0.0270
     28 H           2.6765   -1.5869   -1.7143 H       1  UNL1        0.0270
     29 H           2.5939    0.9574    1.7621 H       1  UNL1        0.0737
     30 H           2.5872   -0.8131    1.9281 H       1  UNL1        0.0737
     31 H           3.1339    0.3667    3.8955 H       1  UNL1        0.0655
     32 H           4.2300    0.3825    6.0393 H       1  UNL1        0.0655
     33 H           8.0423   -0.2276    4.1227 H       1  UNL1        0.0655
     34 H           6.9285   -0.1898    1.9215 H       1  UNL1        0.0655
     35 H           3.6127    1.8630   -0.3774 H       1  UNL1        0.0534
     36 H           3.7127    0.7971   -1.8248 H       1  UNL1        0.0534
     37 H           2.0624    3.3451   -2.7101 H       1  UNL1        0.0834
     38 H          -2.1511    2.0977   -2.0037 H       1  UNL1        0.2955
@<TRIPOS>BOND
     1     1    26    1
     2     1    27    1
     3     1    28    1
     4     2     1    1
     5     3     2    1
     6     3    29    1
     7     3    30    1
     8     4     3    1
     9     5     4    1
    10     6     5   ar
    11     6    31    1
    12     7     6   ar
    13     7    32    1
    14     8     7   ar
    15     9     8    1
    16    10     9    1
    17    11    10    1
    18    12    10    1
    19    13    10    1
    20    14     8   ar
    21    14    33    1
    22    15    14   ar
    23    15     5   ar
    24    15    34    1
    25    16     2    1
    26    16    35    1
    27    16    36    1
    28    17    16    1
    29    18    17   ar
    30    18    37    1
    31    19    18   ar
    32    20    19   ar
    33    21    20   ar
    34    21    17   ar
    35    22    21    1
    36    22     2    1
    37    23    19    1
    38    24    23    1
    39    25    23    2
    40    24    38    1
@<TRIPOS>MOLECULE
mol_177_akc_d0md00083c
>172.sdf
 56 59 0 0 0
SMALL
GASTEIGER

@<TRIPOS>ATOM
      1 C           7.5951   -3.8679   -2.1703 C.3     1  UNL1        0.0820
      2 O           6.7857   -3.2204   -1.1857 O.3     1  UNL1       -0.4643
      3 C           7.1957   -1.9583   -0.8774 C.2     1  UNL1        0.3461
      4 O           8.2035   -1.4395   -1.3419 O.2     1  UNL1       -0.2447
      5 C           6.2885   -1.2591    0.0036 C.ar    1  UNL1        0.1471
      6 C           6.1724    0.1172    0.0858 C.ar    1  UNL1        0.1854
      7 O           5.2015    0.4243    0.9851 O.2     1  UNL1       -0.3519
      8 N           4.6204   -0.7247    1.4549 N.ar    1  UNL1       -0.0619
      9 C           5.2644   -1.7376    0.8690 C.ar    1  UNL1        0.1765
     10 N           4.9534   -3.0375    1.0419 N.pl3   1  UNL1       -0.3216
     11 C           3.6298   -3.4400    1.4763 C.3     1  UNL1        0.0358
     12 C           3.3107   -4.8088    0.9207 C.ar    1  UNL1       -0.0303
     13 C           2.9729   -5.8621    1.7722 C.ar    1  UNL1       -0.0568
     14 C           2.6698   -7.1291    1.2582 C.ar    1  UNL1       -0.0578
     15 C           2.6909   -7.3882   -0.1225 C.ar    1  UNL1       -0.0420
     16 C           3.0210   -6.3145   -0.9701 C.ar    1  UNL1       -0.0578
     17 C           3.3212   -5.0463   -0.4595 C.ar    1  UNL1       -0.0568
     18 C           2.3677   -8.7736   -0.7107 C.3     1  UNL1       -0.0127
     19 C           2.0424   -9.8385    0.3615 C.3     1  UNL1       -0.0560
     20 C           1.1425   -8.6742   -1.6448 C.3     1  UNL1       -0.0560
     21 C           3.5739   -9.2981   -1.5200 C.3     1  UNL1       -0.0560
     22 C           6.6893    1.2708   -0.6407 C.ar    1  UNL1        0.0547
     23 C           6.9819    2.5042   -0.0044 C.ar    1  UNL1        0.1406
     24 C           7.2398    3.6879   -0.7080 C.ar    1  UNL1        0.0148
     25 C           7.3305    3.5726   -2.0715 C.ar    1  UNL1        0.1684
     26 O           7.6822    4.5655   -2.9322 O.3     1  UNL1       -0.4525
     27 C           7.9888    3.7784   -4.1022 C.3     1  UNL1        0.2332
     28 O           7.3955    2.4637   -4.0509 O.3     1  UNL1       -0.4526
     29 C           7.1485    2.3686   -2.7155 C.ar    1  UNL1        0.1670
     30 C           6.7869    1.2201   -2.0415 C.ar    1  UNL1       -0.0032
     31 N           7.2345    2.5279    1.4230 N.pl3   1  UNL1        0.0573
     32 O           8.1816    1.8487    1.8282 O.2     1  UNL1       -0.1261
     33 O           6.5241    3.2810    2.1051 O.2     1  UNL1       -0.1261
     34 H           7.5822   -3.3019   -3.1093 H       1  UNL1        0.0661
     35 H           8.6179   -3.9882   -1.8052 H       1  UNL1        0.0661
     36 H           7.1729   -4.8588   -2.3633 H       1  UNL1        0.0661
     37 H           5.6429   -3.7786    0.9711 H       1  UNL1        0.1479
     38 H           3.5921   -3.4430    2.5712 H       1  UNL1        0.0511
     39 H           2.8541   -2.7484    1.1203 H       1  UNL1        0.0511
     40 H           2.9397   -5.7099    2.8489 H       1  UNL1        0.0621
     41 H           2.4162   -7.9042    1.9758 H       1  UNL1        0.0621
     42 H           3.0478   -6.4498   -2.0494 H       1  UNL1        0.0621
     43 H           3.5689   -4.2407   -1.1486 H       1  UNL1        0.0621
     44 H           1.1580   -9.5622    0.9477 H       1  UNL1        0.0238
     45 H           1.8342  -10.8126   -0.0962 H       1  UNL1        0.0238
     46 H           2.8801   -9.9806    1.0545 H       1  UNL1        0.0238
     47 H           1.3118   -7.9859   -2.4800 H       1  UNL1        0.0238
     48 H           0.8981   -9.6510   -2.0791 H       1  UNL1        0.0238
     49 H           0.2585   -8.3209   -1.1011 H       1  UNL1        0.0238
     50 H           3.8235   -8.6460   -2.3640 H       1  UNL1        0.0238
     51 H           4.4674   -9.3801   -0.8901 H       1  UNL1        0.0238
     52 H           3.3670  -10.2921   -1.9346 H       1  UNL1        0.0238
     53 H           7.4299    4.6314   -0.2089 H       1  UNL1        0.0678
     54 H           9.0807    3.6679   -4.1565 H       1  UNL1        0.1166
     55 H           7.6433    4.2990   -5.0003 H       1  UNL1        0.1166
     56 H           6.6088    0.3078   -2.6015 H       1  UNL1        0.0663
@<TRIPOS>BOND
     1     1    34    1
     2     1    35    1
     3     1    36    1
     4     2     1    1
     5     3     2    1
     6     4     3    2
     7     5     3    1
     8     6     5   ar
     9     7     6   ar
    10     8     7   ar
    11     9     8   ar
    12     9     5   ar
    13    10     9    1
    14    10    37    1
    15    11    10    1
    16    11    38    1
    17    11    39    1
    18    12    11    1
    19    13    12   ar
    20    13    40    1
    21    14    13   ar
    22    14    41    1
    23    15    14   ar
    24    16    15   ar
    25    16    42    1
    26    17    16   ar
    27    17    12   ar
    28    17    43    1
    29    18    15    1
    30    19    18    1
    31    19    44    1
    32    19    45    1
    33    19    46    1
    34    20    18    1
    35    20    47    1
    36    20    48    1
    37    20    49    1
    38    21    18    1
    39    21    50    1
    40    21    51    1
    41    21    52    1
    42    22     6    1
    43    23    22   ar
    44    24    23   ar
    45    24    53    1
    46    25    24   ar
    47    26    25    1
    48    27    26    1
    49    27    54    1
    50    27    55    1
    51    28    27    1
    52    29    28    1
    53    29    25   ar
    54    30    29   ar
    55    30    22   ar
    56    30    56    1
    57    31    23    1
    58    32    31    2
    59    33    31    2
@<TRIPOS>MOLECULE
mol_178_akc_jjgar202002028
>173.sdf
 35 37 0 0 0
SMALL
GASTEIGER

@<TRIPOS>ATOM
      1 C           0.9964    0.0712   -0.0674 C.3     1  UNL1       -0.0188
      2 C           2.5118    0.1149   -0.1044 C.2     1  UNL1        0.0814
      3 N           3.1870    0.9202   -0.8778 N.2     1  UNL1       -0.1836
      4 N           2.5119    1.7562   -1.7117 N.pl3   1  UNL1       -0.2150
      5 C           3.1261    2.5452   -2.6312 C.ar    1  UNL1        0.1783
      6 N           4.3955    2.8890   -2.6441 N.ar    1  UNL1       -0.2236
      7 C           4.6612    3.7539   -3.6922 C.ar    1  UNL1        0.0803
      8 C           3.5980    3.9689   -4.5447 C.ar    1  UNL1        0.0049
      9 S           2.1989    3.1911   -3.9383 S.2     1  UNL1       -0.0586
     10 C           5.9825    4.3487   -3.8587 C.ar    1  UNL1        0.0010
     11 C           7.1063    3.6961   -3.3240 C.ar    1  UNL1       -0.0515
     12 C           8.3821    4.2420   -3.4713 C.ar    1  UNL1       -0.0471
     13 C           8.5469    5.4479   -4.1464 C.ar    1  UNL1        0.0179
     14 BR         10.2771    6.1764   -4.3643 Br      1  UNL1       -0.0503
     15 C           7.4430    6.1226   -4.6630 C.ar    1  UNL1       -0.0471
     16 C           6.1643    5.5751   -4.5166 C.ar    1  UNL1       -0.0515
     17 C           3.2642   -0.8233    0.7914 C.ar    1  UNL1        0.0862
     18 C           4.6524   -0.8833    0.7334 C.ar    1  UNL1       -0.0345
     19 C           5.3171   -1.7628    1.5888 C.ar    1  UNL1       -0.0583
     20 C           4.5745   -2.5478    2.4634 C.ar    1  UNL1       -0.0436
     21 C           3.1940   -2.4275    2.4493 C.ar    1  UNL1        0.0283
     22 N           2.5219   -1.5848    1.6355 N.ar    1  UNL1       -0.2537
     23 H           0.6160    1.0560    0.2206 H       1  UNL1        0.0294
     24 H           0.6175   -0.1876   -1.0609 H       1  UNL1        0.0294
     25 H           0.5980   -0.6588    0.6385 H       1  UNL1        0.0294
     26 H           1.4984    1.7532   -1.7361 H       1  UNL1        0.1765
     27 H           3.5593    4.5439   -5.4581 H       1  UNL1        0.0716
     28 H           6.9818    2.7585   -2.7859 H       1  UNL1        0.0624
     29 H           9.2375    3.7152   -3.0534 H       1  UNL1        0.0629
     30 H           7.5640    7.0731   -5.1761 H       1  UNL1        0.0629
     31 H           5.3165    6.1321   -4.9071 H       1  UNL1        0.0624
     32 H           5.2129   -0.2639    0.0400 H       1  UNL1        0.0639
     33 H           6.3991   -1.8278    1.5703 H       1  UNL1        0.0619
     34 H           5.0615   -3.2368    3.1452 H       1  UNL1        0.0633
     35 H           2.5748   -3.0167    3.1195 H       1  UNL1        0.0830
@<TRIPOS>BOND
     1     1    23    1
     2     1    24    1
     3     1    25    1
     4     2     1    1
     5     3     2    2
     6     4     3    1
     7     4    26    1
     8     5     4    1
     9     6     5   ar
    10     7     6   ar
    11     8     7   ar
    12     8    27    1
    13     9     8   ar
    14     9     5   ar
    15    10     7    1
    16    11    10   ar
    17    11    28    1
    18    12    11   ar
    19    12    29    1
    20    13    12   ar
    21    14    13    1
    22    15    13   ar
    23    15    30    1
    24    16    15   ar
    25    16    10   ar
    26    16    31    1
    27    17     2    1
    28    18    17   ar
    29    18    32    1
    30    19    18   ar
    31    19    33    1
    32    20    19   ar
    33    20    34    1
    34    21    20   ar
    35    21    35    1
    36    22    21   ar
    37    22    17   ar
@<TRIPOS>MOLECULE
mol_179_akc_jejmech2020112418
>174.sdf
 43 46 0 0 0
SMALL
GASTEIGER

@<TRIPOS>ATOM
      1 C           3.6637    0.4025   -0.6660 C.3     1  UNL1       -0.0489
      2 C           2.5084    0.3936    0.3230 C.3     1  UNL1        0.0171
      3 N           2.8702    0.9920    1.5911 N.am    1  UNL1       -0.2684
      4 C           3.4930    0.2767    2.6272 C.2     1  UNL1        0.2610
      5 O           3.7294   -0.9221    2.6335 O.2     1  UNL1       -0.2713
      6 C           3.8240    1.3189    3.7649 C.3     1  UNL1        0.1989
      7 O           3.1515    1.0253    4.9858 O.3     1  UNL1       -0.3710
      8 C           5.3436    1.3671    3.9469 C.2     1  UNL1        0.0547
      9 C           5.9260    1.0479    5.1248 C.2     1  UNL1       -0.0868
     10 C           6.2400    1.7477    2.8814 C.ar    1  UNL1        0.2578
     11 N           7.5355    1.4962    2.8005 N.ar    1  UNL1       -0.1872
     12 C           7.9245    2.0787    1.6163 C.ar    1  UNL1        0.2024
     13 N           6.9267    2.6866    0.9649 N.ar    1  UNL1       -0.0557
     14 O           5.8264    2.4654    1.7762 O.2     1  UNL1       -0.3327
     15 C           9.3036    2.0322    1.1532 C.ar    1  UNL1        0.0225
     16 C          10.2242    1.1874    1.7903 C.ar    1  UNL1       -0.0509
     17 C          11.5566    1.1457    1.3765 C.ar    1  UNL1       -0.0611
     18 C          11.9815    1.9491    0.3209 C.ar    1  UNL1       -0.0617
     19 C          11.0756    2.7874   -0.3268 C.ar    1  UNL1       -0.0611
     20 C           9.7408    2.8279    0.0842 C.ar    1  UNL1       -0.0509
     21 C           3.2445    2.5903    3.1885 C.ar    1  UNL1        0.0202
     22 C           3.2224    3.8624    3.7449 C.ar    1  UNL1       -0.0349
     23 C           2.7158    4.9032    2.9680 C.ar    1  UNL1        0.0415
     24 CL          2.6836    6.4993    3.6093 Cl      1  UNL1       -0.0835
     25 C           2.2446    4.6699    1.6658 C.ar    1  UNL1       -0.0416
     26 C           2.2537    3.3792    1.1228 C.ar    1  UNL1       -0.0385
     27 C           2.7473    2.3500    1.9030 C.ar    1  UNL1        0.0431
     28 H           3.3537   -0.0469   -1.6150 H       1  UNL1        0.0245
     29 H           4.0089    1.4216   -0.8660 H       1  UNL1        0.0245
     30 H           4.5152   -0.1690   -0.2813 H       1  UNL1        0.0245
     31 H           1.6372    0.9084   -0.0943 H       1  UNL1        0.0466
     32 H           2.2108   -0.6452    0.5071 H       1  UNL1        0.0466
     33 H           2.2229    1.2924    4.8832 H       1  UNL1        0.2116
     34 H           7.0038    1.0771    5.2666 H       1  UNL1        0.0540
     35 H           5.3404    0.7382    5.9854 H       1  UNL1        0.0540
     36 H           9.9062    0.5544    2.6172 H       1  UNL1        0.0625
     37 H          12.2590    0.4883    1.8818 H       1  UNL1        0.0618
     38 H          13.0206    1.9219    0.0034 H       1  UNL1        0.0618
     39 H          11.4081    3.4141   -1.1504 H       1  UNL1        0.0618
     40 H           9.0498    3.4925   -0.4305 H       1  UNL1        0.0625
     41 H           3.6090    4.0416    4.7440 H       1  UNL1        0.0637
     42 H           1.8750    5.4991    1.0666 H       1  UNL1        0.0633
     43 H           1.8985    3.2161    0.1114 H       1  UNL1        0.0637
@<TRIPOS>BOND
     1     1    28    1
     2     1    29    1
     3     1    30    1
     4     2     1    1
     5     2    31    1
     6     2    32    1
     7     3     2    1
     8     4     3   am
     9     5     4    2
    10     6     4    1
    11     7    33    1
    12     9     8    2
    13     9    34    1
    14     9    35    1
    15    10     8    1
    16    11    10   ar
    17    12    11   ar
    18    13    12   ar
    19    14    13   ar
    20    14    10   ar
    21    15    12    1
    22    16    15   ar
    23    16    36    1
    24    17    16   ar
    25    17    37    1
    26    18    17   ar
    27    18    38    1
    28    19    18   ar
    29    19    39    1
    30    20    19   ar
    31    20    15   ar
    32    20    40    1
    33    21     6    1
    34    22    21   ar
    35    22    41    1
    36    23    22   ar
    37    24    23    1
    38    25    23   ar
    39    25    42    1
    40    26    25   ar
    41    26    43    1
    42    27    26   ar
    43    27     3    1
    44    27    21   ar
    45     6     8    1
    46     6     7    1
@<TRIPOS>MOLECULE
mol_17_akc_aac02529_15
>17.sdf
 16 16 0 0 0
SMALL
GASTEIGER

@<TRIPOS>ATOM
      1 C           2.6134    0.6689    0.0697 C.3     1  UNL1        0.0000
      2 C           1.1757    0.2776    0.1386 C.ar    1  UNL1        0.0000
      3 C           0.0795    1.1134    0.1423 C.ar    1  UNL1        0.0000
      4 SE         -0.0121    3.0339    0.0093 Se      1  UNL1        0.0000
      5 C           0.8902    3.6474    1.6376 C.1     1  UNL1        0.0000
      6 N           1.4706    4.0421    2.6851 N.1     1  UNL1        0.0000
      7 C          -0.9978    0.2545    0.1474 C.ar    1  UNL1        0.0000
      8 C          -2.4411    0.6413    0.0793 C.3     1  UNL1        0.0000
      9 N          -0.5543   -1.0163    0.1722 N.ar    1  UNL1        0.0000
     10 O           0.7480   -0.9669    0.1675 O.2     1  UNL1        0.0000
     11 H           2.7963    1.2491   -0.8589 H       1  UNL1        0.0000
     12 H           2.8800    1.2768    0.9526 H       1  UNL1        0.0000
     13 H           3.2449   -0.2461    0.0468 H       1  UNL1        0.0000
     14 H          -2.7079    1.2591    0.9618 H       1  UNL1        0.0000
     15 H          -2.6303    1.2272   -0.8462 H       1  UNL1        0.0000
     16 H          -3.0832   -0.2650    0.0615 H       1  UNL1        0.0000
@<TRIPOS>BOND
     1     1    11    1
     2     1    12    1
     3     1    13    1
     4     2     1    1
     5     3     2   ar
     6     4     3    1
     7     5     4    1
     8     6     5    3
     9     7     3   ar
    10     8     7    1
    11     8    14    1
    12     8    15    1
    13     8    16    1
    14     9     7   ar
    15    10     9   ar
    16    10     2   ar
@<TRIPOS>MOLECULE
mol_180_akc_s12639_020_01230_8
>175.sdf
 30 32 0 0 0
SMALL
GASTEIGER

@<TRIPOS>ATOM
      1 O           2.0597   -0.2447    0.8543 O.3     1  UNL1       -0.5068
      2 C           0.7411   -0.1672    0.5188 C.ar    1  UNL1        0.1169
      3 C          -0.0666    0.8619    0.9919 C.ar    1  UNL1       -0.0195
      4 C          -1.4189    0.8870    0.6425 C.ar    1  UNL1       -0.0476
      5 C          -1.9594   -0.1168   -0.1737 C.ar    1  UNL1        0.0176
      6 C          -1.1292   -1.1371   -0.6529 C.ar    1  UNL1       -0.0476
      7 C           0.2235   -1.1589   -0.3071 C.ar    1  UNL1       -0.0195
      8 C          -3.3885   -0.1071   -0.4948 C.ar    1  UNL1        0.1392
      9 C          -3.8687    0.6591   -1.4831 C.ar    1  UNL1        0.0288
     10 C          -5.3199    0.6703   -1.7171 C.ar    1  UNL1        0.1966
     11 O          -5.8235    1.3591   -2.5990 O.2     1  UNL1       -0.2869
     12 C          -6.1467   -0.1702   -0.8414 C.ar    1  UNL1        0.1055
     13 C          -7.5390   -0.2137   -0.9630 C.ar    1  UNL1        0.1347
     14 O          -8.2296    0.5282   -1.8825 O.3     1  UNL1       -0.5058
     15 C          -8.2864   -1.0382   -0.1261 C.ar    1  UNL1        0.0223
     16 C          -7.6371   -1.8178    0.8281 C.ar    1  UNL1        0.1239
     17 O          -8.4032   -2.6261    1.6146 O.3     1  UNL1       -0.5065
     18 C          -6.2528   -1.7729    0.9701 C.ar    1  UNL1        0.0231
     19 C          -5.5094   -0.9410    0.1308 C.ar    1  UNL1        0.1462
     20 O          -4.1492   -0.9258    0.3186 O.2     1  UNL1       -0.4544
     21 H           2.2593    0.4547    1.4982 H       1  UNL1        0.2921
     22 H           0.3317    1.6430    1.6316 H       1  UNL1        0.0654
     23 H          -2.0519    1.6854    1.0239 H       1  UNL1        0.0626
     24 H          -1.5294   -1.9245   -1.2872 H       1  UNL1        0.0626
     25 H           0.8693   -1.9534   -0.6711 H       1  UNL1        0.0654
     26 H          -3.2532    1.2872   -2.1137 H       1  UNL1        0.0693
     27 H          -7.5818    1.0511   -2.4066 H       1  UNL1        0.2922
     28 H          -9.3680   -1.0767   -0.2205 H       1  UNL1        0.0691
     29 H          -7.8257   -3.1573    2.1875 H       1  UNL1        0.2921
     30 H          -5.7434   -2.3702    1.7199 H       1  UNL1        0.0691
@<TRIPOS>BOND
     1     1    21    1
     2     2     1    1
     3     3     2   ar
     4     3    22    1
     5     4     3   ar
     6     4    23    1
     7     5     4   ar
     8     6     5   ar
     9     6    24    1
    10     7     6   ar
    11     7     2   ar
    12     7    25    1
    13     8     5    1
    14     9     8   ar
    15     9    26    1
    16    10     9   ar
    17    11    10    2
    18    12    10   ar
    19    13    12   ar
    20    14    13    1
    21    14    27    1
    22    15    13   ar
    23    15    28    1
    24    16    15   ar
    25    17    16    1
    26    17    29    1
    27    18    16   ar
    28    18    30    1
    29    19    18   ar
    30    19    12   ar
    31    20    19   ar
    32    20     8   ar
@<TRIPOS>MOLECULE
mol_181_akc_d0nj01206h
>176.sdf
 49 53 0 0 0
SMALL
GASTEIGER

@<TRIPOS>ATOM
      1 C           0.3216   -1.7305    2.9477 C.3     1  UNL1       -0.0430
      2 N          -0.0471   -0.8250    1.8056 N.4     1  UNL1        0.2353
      3 C          -0.0444   -1.5811    0.4794 C.3     1  UNL1       -0.0160
      4 C          -0.4528   -0.6580   -0.6890 C.3     1  UNL1        0.0538
      5 N          -1.6969    0.0637   -0.4009 N.pl3   1  UNL1       -0.3032
      6 C          -1.7596    0.7764    0.8771 C.3     1  UNL1        0.0538
      7 C          -1.3927   -0.1437    2.0515 C.3     1  UNL1       -0.0160
      8 C          -2.8072    0.0113   -1.2340 C.ar    1  UNL1        0.1505
      9 N          -3.8970   -0.5483   -0.7672 N.ar    1  UNL1       -0.1473
     10 N          -4.9789   -0.5759   -1.6318 N.ar    1  UNL1       -0.1902
     11 C          -6.2424   -1.1151   -1.4321 C.ar    1  UNL1        0.1854
     12 N          -6.9716   -0.8748   -2.5128 N.ar    1  UNL1       -0.1270
     13 N          -6.2005   -0.2119   -3.4315 N.ar    1  UNL1       -0.1270
     14 C          -5.0133   -0.0396   -2.8961 C.ar    1  UNL1        0.1860
     15 C          -3.8414    0.6078   -3.4229 C.ar    1  UNL1        0.0315
     16 C          -2.7075    0.6369   -2.6046 C.ar    1  UNL1        0.0274
     17 C          -1.5525    1.2930   -3.0512 C.ar    1  UNL1       -0.0506
     18 C          -1.5265    1.8822   -4.3171 C.ar    1  UNL1       -0.0611
     19 C          -2.6592    1.8444   -5.1282 C.ar    1  UNL1       -0.0610
     20 C          -3.8196    1.2126   -4.6816 C.ar    1  UNL1       -0.0503
     21 C          -6.7263   -1.8032   -0.2324 C.ar    1  UNL1        0.0231
     22 C          -8.1006   -1.7978    0.0616 C.ar    1  UNL1       -0.0509
     23 C          -8.5997   -2.4235    1.2087 C.ar    1  UNL1       -0.0589
     24 C          -7.7315   -3.0661    2.0885 C.ar    1  UNL1       -0.0314
     25 C          -6.3628   -3.0916    1.7967 C.ar    1  UNL1        0.1269
     26 C          -5.8635   -2.4834    0.6347 C.ar    1  UNL1       -0.0207
     27 N          -5.4224   -3.7243    2.7276 N.pl3   1  UNL1        0.0564
     28 O          -5.8845   -4.2850    3.7290 O.2     1  UNL1       -0.1261
     29 O          -4.2080   -3.6254    2.4772 O.2     1  UNL1       -0.1261
     30 H           1.2975   -2.1726    2.7306 H       1  UNL1        0.0778
     31 H           0.3800   -1.1232    3.8547 H       1  UNL1        0.0778
     32 H          -0.4457   -2.5027    3.0413 H       1  UNL1        0.0778
     33 H           0.6707   -0.0918    1.7489 H       1  UNL1        0.2032
     34 H           0.9703   -1.9548    0.3241 H       1  UNL1        0.0830
     35 H          -0.7421   -2.4195    0.5826 H       1  UNL1        0.0830
     36 H           0.3475    0.0718   -0.8597 H       1  UNL1        0.0517
     37 H          -0.5494   -1.2606   -1.5994 H       1  UNL1        0.0517
     38 H          -1.0540    1.6170    0.8338 H       1  UNL1        0.0517
     39 H          -2.7534    1.2069    1.0454 H       1  UNL1        0.0517
     40 H          -2.1357   -0.9361    2.1844 H       1  UNL1        0.0830
     41 H          -1.2910    0.4377    2.9763 H       1  UNL1        0.0830
     42 H          -0.6693    1.3818   -2.4326 H       1  UNL1        0.0625
     43 H          -0.6267    2.3855   -4.6672 H       1  UNL1        0.0618
     44 H          -2.6439    2.3184   -6.1097 H       1  UNL1        0.0618
     45 H          -4.7077    1.2044   -5.3138 H       1  UNL1        0.0625
     46 H          -8.7980   -1.2959   -0.6096 H       1  UNL1        0.0625
     47 H          -9.6693   -2.3995    1.4154 H       1  UNL1        0.0618
     48 H          -8.1325   -3.5352    2.9851 H       1  UNL1        0.0640
     49 H          -4.8035   -2.5454    0.4057 H       1  UNL1        0.0647
@<TRIPOS>UNITY_ATOM_ATTR
2 1
charge 1
@<TRIPOS>BOND
     1     1    30    1
     2     1    31    1
     3     1    32    1
     4     2     1    1
     5     2    33    1
     6     3     2    1
     7     3    34    1
     8     3    35    1
     9     4     3    1
    10     4    36    1
    11     4    37    1
    12     5     4    1
    13     6     5    1
    14     6    38    1
    15     6    39    1
    16     7     6    1
    17     7     2    1
    18     7    40    1
    19     7    41    1
    20     8     5    1
    21     9     8   ar
    22    10     9   ar
    23    11    10   ar
    24    12    11   ar
    25    13    12   ar
    26    14    13   ar
    27    14    10   ar
    28    15    14   ar
    29    16    15   ar
    30    16     8   ar
    31    17    16   ar
    32    17    42    1
    33    18    17   ar
    34    18    43    1
    35    19    18   ar
    36    19    44    1
    37    20    19   ar
    38    20    15   ar
    39    20    45    1
    40    21    11    1
    41    22    21   ar
    42    22    46    1
    43    23    22   ar
    44    23    47    1
    45    24    23   ar
    46    24    48    1
    47    25    24   ar
    48    26    25   ar
    49    26    21   ar
    50    26    49    1
    51    27    25    1
    52    28    27    2
    53    29    27    2
@<TRIPOS>MOLECULE
mol_182_akc_ardp201900325
>177.sdf
 26 28 0 0 0
SMALL
GASTEIGER

@<TRIPOS>ATOM
      1 CL         -2.0489    0.1075   -0.1502 Cl      1  UNL1       -0.0835
      2 C          -0.3294    0.0914   -0.1374 C.ar    1  UNL1        0.0410
      3 C           0.3650    1.0340    0.6188 C.ar    1  UNL1       -0.0427
      4 C           1.7641    1.0181    0.6432 C.ar    1  UNL1       -0.0482
      5 C           2.4721    0.0646   -0.1046 C.ar    1  UNL1        0.0372
      6 C           1.7590   -0.8857   -0.8514 C.ar    1  UNL1       -0.0482
      7 C           0.3614   -0.8707   -0.8697 C.ar    1  UNL1       -0.0427
      8 C           3.9668   -0.0279   -0.0884 C.2     1  UNL1        0.2497
      9 O           4.4816   -1.1045   -0.3592 O.2     1  UNL1       -0.2698
     10 N           4.6273    1.1338    0.2454 N.am    1  UNL1       -0.2606
     11 C           5.9681    1.1498    0.5199 C.ar    1  UNL1        0.1672
     12 N           6.8543    0.1950    0.4010 N.ar    1  UNL1       -0.2214
     13 C           8.0514    0.6255    0.9374 C.ar    1  UNL1        0.1168
     14 C           8.0366    1.9184    1.4445 C.ar    1  UNL1        0.1342
     15 S           6.5093    2.6304    1.1827 S.2     1  UNL1       -0.0322
     16 N           9.0415    2.5604    2.0643 N.ar    1  UNL1       -0.2085
     17 C          10.1301    1.7820    2.1490 C.ar    1  UNL1        0.2238
     18 CL         11.4606    2.4578    2.9832 Cl      1  UNL1       -0.0410
     19 N          10.3075    0.5314    1.6852 N.ar    1  UNL1       -0.2237
     20 C           9.2596   -0.0579    1.0624 C.ar    1  UNL1        0.0588
     21 H          -0.1774    1.7722    1.2050 H       1  UNL1        0.0632
     22 H           2.2675    1.7358    1.2837 H       1  UNL1        0.0625
     23 H           2.2920   -1.6502   -1.4154 H       1  UNL1        0.0625
     24 H          -0.1771   -1.6175   -1.4478 H       1  UNL1        0.0632
     25 H           4.1372    2.0021    0.3856 H       1  UNL1        0.1571
     26 H           9.4010   -1.0672    0.6946 H       1  UNL1        0.0853
@<TRIPOS>BOND
     1     2     1    1
     2     3     2   ar
     3     3    21    1
     4     4     3   ar
     5     4    22    1
     6     5     4   ar
     7     6     5   ar
     8     6    23    1
     9     7     6   ar
    10     7     2   ar
    11     7    24    1
    12     8     5    1
    13     9     8    2
    14    10     8   am
    15    10    25    1
    16    11    10    1
    17    12    11   ar
    18    13    12   ar
    19    14    13   ar
    20    15    14   ar
    21    15    11   ar
    22    16    14   ar
    23    17    16   ar
    24    18    17    1
    25    19    17   ar
    26    20    19   ar
    27    20    13   ar
    28    20    26    1
@<TRIPOS>MOLECULE
mol_183_akc_acsjmedchem0c00570
>178.sdf
 53 56 0 0 0
SMALL
GASTEIGER

@<TRIPOS>ATOM
      1 C           0.9128   -0.0001   -0.3581 C.3     1  UNL1        0.0037
      2 N           2.3477    0.0119   -0.1545 N.pl3   1  UNL1       -0.2992
      3 C           3.0193    0.9210    0.7811 C.3     1  UNL1        0.0355
      4 C           3.0699    0.3213    2.1933 C.3     1  UNL1        0.0063
      5 C           3.6403    1.3012    3.2080 C.3     1  UNL1       -0.0304
      6 N           2.8984    2.6130    3.1672 N.4     1  UNL1        0.2332
      7 C           1.5075    2.5423    3.7460 C.3     1  UNL1       -0.0431
      8 C           2.9660    3.2405    1.7997 C.3     1  UNL1       -0.0304
      9 C           2.3658    2.3125    0.7599 C.3     1  UNL1        0.0063
     10 C           3.1140   -0.8436   -0.9238 C.ar    1  UNL1        0.2201
     11 N           2.6961   -1.1809   -2.1620 N.ar    1  UNL1       -0.1982
     12 C           3.4477   -1.9720   -2.9841 C.ar    1  UNL1        0.1411
     13 N           3.0126   -2.2137   -4.2831 N.pl3   1  UNL1       -0.3101
     14 C           3.9611   -2.4735   -5.3646 C.3     1  UNL1        0.0139
     15 C           3.4268   -1.6814   -6.5467 C.3     1  UNL1       -0.0355
     16 C           1.9277   -1.7149   -6.3483 C.3     1  UNL1       -0.0320
     17 C           1.7382   -1.6671   -4.8185 C.3     1  UNL1        0.0376
     18 C           0.5610   -2.5481   -4.4077 C.3     1  UNL1        0.0533
     19 C          -0.7738   -2.1576   -5.0212 C.1     1  UNL1        0.0644
     20 N          -1.8811   -1.8336   -5.5301 N.1     1  UNL1       -0.1965
     21 C           4.6155   -2.5241   -2.3974 C.ar    1  UNL1        0.0776
     22 S           5.7841   -3.6548   -2.9946 S.2     1  UNL1       -0.0917
     23 C           6.7024   -3.6230   -1.5626 C.ar    1  UNL1       -0.0216
     24 C           6.1351   -2.8087   -0.6180 C.ar    1  UNL1       -0.0285
     25 C           4.9560   -2.1588   -1.0963 C.ar    1  UNL1        0.0850
     26 N           4.2422   -1.2851   -0.3669 N.ar    1  UNL1       -0.2137
     27 H           0.3969    0.0567    0.6075 H       1  UNL1        0.0429
     28 H           0.6016    0.8568   -0.9634 H       1  UNL1        0.0429
     29 H           0.5531   -0.9148   -0.8420 H       1  UNL1        0.0429
     30 H           4.0581    1.0818    0.4547 H       1  UNL1        0.0504
     31 H           3.6979   -0.5776    2.1964 H       1  UNL1        0.0335
     32 H           2.0746   -0.0098    2.5089 H       1  UNL1        0.0335
     33 H           4.6912    1.5317    2.9970 H       1  UNL1        0.0815
     34 H           3.5754    0.9174    4.2315 H       1  UNL1        0.0815
     35 H           3.4111    3.2501    3.7935 H       1  UNL1        0.2030
     36 H           1.0740    3.5449    3.7107 H       1  UNL1        0.0777
     37 H           0.9042    1.8420    3.1641 H       1  UNL1        0.0777
     38 H           1.5924    2.2071    4.7827 H       1  UNL1        0.0777
     39 H           2.4351    4.1970    1.8462 H       1  UNL1        0.0815
     40 H           4.0234    3.4438    1.5955 H       1  UNL1        0.0815
     41 H           2.4894    2.7578   -0.2355 H       1  UNL1        0.0335
     42 H           1.2852    2.2463    0.9286 H       1  UNL1        0.0335
     43 H           3.9640   -3.5470   -5.5862 H       1  UNL1        0.0464
     44 H           4.9810   -2.1356   -5.1631 H       1  UNL1        0.0464
     45 H           3.7922   -0.6494   -6.5039 H       1  UNL1        0.0281
     46 H           3.7351   -2.1150   -7.5027 H       1  UNL1        0.0281
     47 H           1.4314   -0.8768   -6.8476 H       1  UNL1        0.0284
     48 H           1.5261   -2.6423   -6.7749 H       1  UNL1        0.0284
     49 H           1.5966   -0.6249   -4.5053 H       1  UNL1        0.0510
     50 H           0.7601   -3.5962   -4.6674 H       1  UNL1        0.0436
     51 H           0.4451   -2.5248   -3.3171 H       1  UNL1        0.0436
     52 H           7.6054   -4.2144   -1.4752 H       1  UNL1        0.0694
     53 H           6.5391   -2.6752    0.3779 H       1  UNL1        0.0644
@<TRIPOS>UNITY_ATOM_ATTR
6 1
charge 1
@<TRIPOS>BOND
     1     1    27    1
     2     1    28    1
     3     1    29    1
     4     2     1    1
     5     3     2    1
     6     3    30    1
     7     4     3    1
     8     4    31    1
     9     4    32    1
    10     5     4    1
    11     5    33    1
    12     5    34    1
    13     6     5    1
    14     7    36    1
    15     7    37    1
    16     7    38    1
    17     8     6    1
    18     8    39    1
    19     8    40    1
    20     9     8    1
    21     9     3    1
    22     9    41    1
    23     9    42    1
    24    10     2    1
    25    11    10   ar
    26    12    11   ar
    27    13    12    1
    28    14    13    1
    29    14    43    1
    30    14    44    1
    31    15    14    1
    32    15    45    1
    33    15    46    1
    34    16    15    1
    35    16    47    1
    36    16    48    1
    37    17    16    1
    38    17    13    1
    39    17    49    1
    40    18    17    1
    41    18    50    1
    42    18    51    1
    43    19    18    1
    44    20    19    3
    45    21    12   ar
    46    22    21   ar
    47    23    22   ar
    48    23    52    1
    49    24    23   ar
    50    24    53    1
    51    25    24   ar
    52    25    21   ar
    53    26    25   ar
    54    26    10   ar
    55     6     7    1
    56     6    35    1
@<TRIPOS>MOLECULE
mol_184_akc
>179.sdf
 38 40 0 0 0
SMALL
GASTEIGER

@<TRIPOS>ATOM
      1 BR         12.0963    6.2271   -0.1860 Br      1  UNL1       -0.0503
      2 C          10.8803    4.7818   -0.1170 C.ar    1  UNL1        0.0179
      3 C          11.2518    3.5910    0.5082 C.ar    1  UNL1       -0.0471
      4 C          10.3548    2.5171    0.5619 C.ar    1  UNL1       -0.0502
      5 C           9.0811    2.6404   -0.0058 C.ar    1  UNL1        0.0183
      6 C           8.7165    3.8478   -0.6234 C.ar    1  UNL1       -0.0502
      7 C           9.6162    4.9147   -0.6852 C.ar    1  UNL1       -0.0471
      8 C           8.0694    1.5426    0.0402 C.2     1  UNL1        0.1733
      9 O           6.8823    1.8601   -0.0131 O.2     1  UNL1       -0.2912
     10 C           8.5710    0.1067    0.1123 C.3     1  UNL1        0.0633
     11 S           7.1912   -1.0797    0.0813 S.3     1  UNL1       -0.0890
     12 C           8.0464   -2.6004    0.1645 C.ar    1  UNL1        0.1606
     13 N           9.3573   -2.6822    0.1589 N.ar    1  UNL1       -0.1329
     14 N           9.7894   -3.9909    0.2436 N.ar    1  UNL1       -0.1205
     15 C           8.7976   -4.8643    0.3162 C.ar    1  UNL1        0.2159
     16 S           7.2427   -4.1064    0.2649 S.2     1  UNL1       -0.0200
     17 N           8.8499   -6.2195    0.4362 N.2     1  UNL1       -0.2281
     18 C          10.0387   -6.7271    0.4927 C.2     1  UNL1        0.0376
     19 C          10.2614   -8.1819    0.6545 C.ar    1  UNL1       -0.0067
     20 C           9.1862   -9.0755    0.7450 C.ar    1  UNL1       -0.0510
     21 C           9.4261  -10.4427    0.9187 C.ar    1  UNL1       -0.0309
     22 C          10.7463  -10.9095    1.0003 C.ar    1  UNL1        0.1262
     23 C          11.8244  -10.0178    0.9049 C.ar    1  UNL1       -0.0309
     24 C          11.5778   -8.6521    0.7311 C.ar    1  UNL1       -0.0510
     25 N          11.0033  -12.3435    1.1919 N.pl3   1  UNL1        0.0564
     26 O          10.0247  -13.0988    1.2737 O.2     1  UNL1       -0.1261
     27 O          12.1846  -12.7113    1.2621 O.2     1  UNL1       -0.1261
     28 H          12.2346    3.4941    0.9644 H       1  UNL1        0.0629
     29 H          10.6686    1.6122    1.0740 H       1  UNL1        0.0625
     30 H           7.7255    3.9620   -1.0610 H       1  UNL1        0.0625
     31 H           9.3176    5.8405   -1.1713 H       1  UNL1        0.0629
     32 H           9.2163   -0.0762   -0.7530 H       1  UNL1        0.0462
     33 H           9.1279   -0.0371    1.0418 H       1  UNL1        0.0462
     34 H          10.9548   -6.1084    0.4313 H       1  UNL1        0.0836
     35 H           8.1613   -8.7134    0.6865 H       1  UNL1        0.0625
     36 H           8.5797  -11.1233    0.9919 H       1  UNL1        0.0640
     37 H          12.8537  -10.3674    0.9664 H       1  UNL1        0.0640
     38 H          12.4202   -7.9652    0.6620 H       1  UNL1        0.0625
@<TRIPOS>BOND
     1     2     1    1
     2     3     2   ar
     3     3    28    1
     4     4     3   ar
     5     4    29    1
     6     5     4   ar
     7     6     5   ar
     8     6    30    1
     9     7     6   ar
    10     7     2   ar
    11     7    31    1
    12     8     5    1
    13     9     8    2
    14    10     8    1
    15    10    32    1
    16    10    33    1
    17    11    10    1
    18    12    11    1
    19    13    12   ar
    20    14    13   ar
    21    15    14   ar
    22    16    15   ar
    23    16    12   ar
    24    17    15    1
    25    18    17    2
    26    18    34    1
    27    19    18    1
    28    20    19   ar
    29    20    35    1
    30    21    20   ar
    31    21    36    1
    32    22    21   ar
    33    23    22   ar
    34    23    37    1
    35    24    23   ar
    36    24    19   ar
    37    24    38    1
    38    25    22    1
    39    26    25    2
    40    27    25    2
@<TRIPOS>MOLECULE
mol_186_akc_aac01766_19
>181.sdf
 50 54 0 0 0
SMALL
GASTEIGER

@<TRIPOS>ATOM
      1 C           1.0202   -0.0573   -0.6710 C.3     1  UNL1        0.0789
      2 O           2.3460   -0.0701   -0.1639 O.3     1  UNL1       -0.4930
      3 C           2.9733   -1.2997   -0.1083 C.ar    1  UNL1        0.1461
      4 C           2.7272   -2.3178   -1.0381 C.ar    1  UNL1       -0.0178
      5 C           3.4348   -3.5108   -0.9560 C.ar    1  UNL1       -0.0575
      6 C           4.4006   -3.6719    0.0343 C.ar    1  UNL1       -0.0490
      7 C           4.6766   -2.6344    0.9633 C.ar    1  UNL1        0.0438
      8 C           5.6816   -2.6727    1.9499 C.ar    1  UNL1        0.1322
      9 N           6.5658   -3.7822    2.0246 N.pl3   1  UNL1       -0.3243
     10 C           7.8350   -3.4519    2.6790 C.3     1  UNL1        0.0357
     11 C           8.7441   -4.6607    2.6897 C.ar    1  UNL1       -0.0304
     12 C           9.7020   -4.8638    1.6832 C.ar    1  UNL1       -0.0571
     13 C          10.5653   -5.9623    1.7361 C.ar    1  UNL1       -0.0615
     14 C          10.4769   -6.8714    2.7888 C.ar    1  UNL1       -0.0617
     15 C           9.5165   -6.6925    3.7824 C.ar    1  UNL1       -0.0615
     16 C           8.6502   -5.5999    3.7294 C.ar    1  UNL1       -0.0571
     17 N           5.8098   -1.7025    2.8632 N.ar    1  UNL1       -0.1963
     18 C           5.0303   -0.6059    2.7470 C.ar    1  UNL1        0.2401
     19 N           5.2367    0.4594    3.6724 N.ar    1  UNL1       -0.2488
     20 C           4.9109    1.8035    3.4905 C.ar    1  UNL1        0.2009
     21 N           4.2366    2.2918    2.4325 N.pl3   1  UNL1       -0.3285
     22 N           5.4228    2.5590    4.4323 N.ar    1  UNL1       -0.2143
     23 C           6.0398    1.7001    5.2963 C.ar    1  UNL1        0.0914
     24 C           6.7560    1.9944    6.4660 C.ar    1  UNL1       -0.0342
     25 C           7.2731    0.9409    7.2263 C.ar    1  UNL1       -0.0596
     26 C           7.0511   -0.3829    6.8495 C.ar    1  UNL1       -0.0597
     27 C           6.3485   -0.6947    5.6804 C.ar    1  UNL1       -0.0356
     28 C           5.8883    0.3763    4.8963 C.ar    1  UNL1        0.0779
     29 N           4.1268   -0.4439    1.7766 N.ar    1  UNL1       -0.2079
     30 C           3.9328   -1.4442    0.9024 C.ar    1  UNL1        0.1196
     31 H           1.0129   -0.1835   -1.7573 H       1  UNL1        0.0660
     32 H           0.3974   -0.8101   -0.1784 H       1  UNL1        0.0660
     33 H           0.5945    0.9278   -0.4507 H       1  UNL1        0.0660
     34 H           2.0091   -2.1945   -1.8421 H       1  UNL1        0.0655
     35 H           3.2461   -4.3099   -1.6703 H       1  UNL1        0.0619
     36 H           4.9380   -4.6163    0.0836 H       1  UNL1        0.0625
     37 H           6.7649   -4.1277    1.0921 H       1  UNL1        0.1478
     38 H           8.3382   -2.6361    2.1414 H       1  UNL1        0.0511
     39 H           7.6874   -3.1206    3.7144 H       1  UNL1        0.0511
     40 H           9.7966   -4.1584    0.8602 H       1  UNL1        0.0621
     41 H          11.3147   -6.1047    0.9619 H       1  UNL1        0.0618
     42 H          11.1563   -7.7193    2.8365 H       1  UNL1        0.0618
     43 H           9.4456   -7.4002    4.6039 H       1  UNL1        0.0618
     44 H           7.9052   -5.4692    4.5095 H       1  UNL1        0.0621
     45 H           3.5628    1.7004    1.9464 H       1  UNL1        0.1451
     46 H           4.0100    3.2799    2.4508 H       1  UNL1        0.1451
     47 H           6.9016    3.0273    6.7620 H       1  UNL1        0.0639
     48 H           7.8445    1.1607    8.1243 H       1  UNL1        0.0618
     49 H           7.4367   -1.1891    7.4700 H       1  UNL1        0.0618
     50 H           6.1742   -1.7291    5.3985 H       1  UNL1        0.0639
@<TRIPOS>BOND
     1     1    31    1
     2     1    32    1
     3     1    33    1
     4     2     1    1
     5     3     2    1
     6     4     3   ar
     7     4    34    1
     8     5     4   ar
     9     5    35    1
    10     6     5   ar
    11     6    36    1
    12     7     6   ar
    13     8     7   ar
    14     9     8    1
    15     9    37    1
    16    10     9    1
    17    10    38    1
    18    10    39    1
    19    11    10    1
    20    12    11   ar
    21    12    40    1
    22    13    12   ar
    23    13    41    1
    24    14    13   ar
    25    14    42    1
    26    15    14   ar
    27    15    43    1
    28    16    15   ar
    29    16    11   ar
    30    16    44    1
    31    17     8   ar
    32    18    17   ar
    33    19    18    1
    34    20    19   ar
    35    21    20    1
    36    21    45    1
    37    21    46    1
    38    22    20   ar
    39    23    22   ar
    40    24    23   ar
    41    24    47    1
    42    25    24   ar
    43    25    48    1
    44    26    25   ar
    45    26    49    1
    46    27    26   ar
    47    27    50    1
    48    28    27   ar
    49    28    23   ar
    50    28    19   ar
    51    29    18   ar
    52    30    29   ar
    53    30     3   ar
    54    30     7   ar
@<TRIPOS>MOLECULE
mol_187_akc_jejmech201608048
>182.sdf
 55 60 0 0 0
SMALL
GASTEIGER

@<TRIPOS>ATOM
      1 O           2.6722    1.2213   -0.0597 O.2     1  UNL1       -0.2667
      2 C           2.3952    0.0354   -0.1882 C.2     1  UNL1        0.2840
      3 N           1.3663   -0.4831   -0.9574 N.am    1  UNL1       -0.2016
      4 N           0.5373    0.3881   -1.6152 N.2     1  UNL1       -0.1869
      5 C          -0.4313   -0.1057   -2.3169 C.2     1  UNL1        0.0594
      6 C          -1.3565    0.7723   -2.9994 C.ar    1  UNL1        0.0323
      7 C          -1.3599    2.1505   -3.0610 C.ar    1  UNL1       -0.0454
      8 C          -2.4625    2.6572   -3.8126 C.ar    1  UNL1       -0.0458
      9 C          -3.2818    1.6558   -4.3025 C.ar    1  UNL1        0.0265
     10 S          -2.6732    0.1076   -3.8608 S.2     1  UNL1       -0.0868
     11 C          -4.4911    1.8010   -5.0838 C.ar    1  UNL1        0.0259
     12 C          -5.6000    0.9718   -5.0932 C.ar    1  UNL1       -0.0464
     13 C          -6.6134    1.4075   -5.9977 C.ar    1  UNL1       -0.0541
     14 C          -6.2530    2.5609   -6.6546 C.ar    1  UNL1       -0.0237
     15 S          -4.7115    3.1170   -6.1695 S.2     1  UNL1       -0.0961
     16 C           3.2294   -1.0080    0.5653 C.ar    1  UNL1        0.1586
     17 N           2.9196   -2.2776    0.4475 N.ar    1  UNL1       -0.1578
     18 N           3.6432   -3.2559    1.1868 N.ar    1  UNL1       -0.1943
     19 C           3.0773   -4.5801    1.1444 C.ar    1  UNL1        0.0693
     20 C           3.3296   -5.5307    2.1514 C.ar    1  UNL1       -0.0361
     21 C           2.7626   -6.8072    2.1199 C.ar    1  UNL1       -0.0598
     22 C           1.9224   -7.1635    1.0756 C.ar    1  UNL1       -0.0616
     23 C           1.6563   -6.2440    0.0637 C.ar    1  UNL1       -0.0598
     24 C           2.2239   -4.9631    0.0998 C.ar    1  UNL1       -0.0361
     25 C           4.7882   -2.9628    1.9801 C.ar    1  UNL1        0.2981
     26 O           5.4429   -3.8032    2.5853 O.2     1  UNL1       -0.2635
     27 C           5.1077   -1.5697    2.0274 C.ar    1  UNL1        0.1429
     28 C           4.3308   -0.6192    1.4130 C.ar    1  UNL1        0.0577
     29 C           4.8395    0.6027    1.8680 C.ar    1  UNL1        0.0600
     30 N           5.8504    0.4380    2.7258 N.ar    1  UNL1       -0.1734
     31 N           6.0928   -0.9060    2.7271 N.ar    1  UNL1       -0.2267
     32 C           7.2439   -1.4136    3.3910 C.ar    1  UNL1        0.0662
     33 C           7.7449   -0.7419    4.5144 C.ar    1  UNL1       -0.0362
     34 C           8.8423   -1.2621    5.2075 C.ar    1  UNL1       -0.0598
     35 C           9.4621   -2.4317    4.7674 C.ar    1  UNL1       -0.0616
     36 C           8.9964   -3.0764    3.6253 C.ar    1  UNL1       -0.0598
     37 C           7.8987   -2.5633    2.9319 C.ar    1  UNL1       -0.0362
     38 H           1.2011   -1.4848   -0.9802 H       1  UNL1        0.1776
     39 H          -0.5793   -1.1968   -2.4028 H       1  UNL1        0.0857
     40 H          -0.6102    2.7704   -2.5805 H       1  UNL1        0.0629
     41 H          -2.6492    3.7146   -3.9643 H       1  UNL1        0.0629
     42 H          -5.6918    0.0880   -4.4736 H       1  UNL1        0.0629
     43 H          -7.5567    0.8990   -6.1569 H       1  UNL1        0.0623
     44 H          -6.8226    3.1077   -7.3941 H       1  UNL1        0.0693
     45 H           3.9433   -5.3062    3.0188 H       1  UNL1        0.0639
     46 H           2.9785   -7.5096    2.9218 H       1  UNL1        0.0618
     47 H           1.4767   -8.1548    1.0546 H       1  UNL1        0.0618
     48 H           1.0069   -6.5282   -0.7599 H       1  UNL1        0.0618
     49 H           2.0136   -4.2829   -0.7197 H       1  UNL1        0.0639
     50 H           4.5036    1.6098    1.6480 H       1  UNL1        0.0855
     51 H           7.2650    0.1619    4.8848 H       1  UNL1        0.0639
     52 H           9.2090   -0.7585    6.0983 H       1  UNL1        0.0618
     53 H          10.3109   -2.8384    5.3105 H       1  UNL1        0.0618
     54 H           9.4827   -3.9818    3.2704 H       1  UNL1        0.0618
     55 H           7.5914   -3.0740    2.0238 H       1  UNL1        0.0639
@<TRIPOS>BOND
     1     2     1    2
     2     3     2   am
     3     3    38    1
     4     4     3    1
     5     5     4    2
     6     5    39    1
     7     6     5    1
     8     7     6   ar
     9     7    40    1
    10     8     7   ar
    11     8    41    1
    12     9     8   ar
    13    10     9   ar
    14    10     6   ar
    15    11     9    1
    16    12    11   ar
    17    12    42    1
    18    13    12   ar
    19    13    43    1
    20    14    13   ar
    21    14    44    1
    22    15    14   ar
    23    15    11   ar
    24    16     2    1
    25    17    16   ar
    26    18    17   ar
    27    19    18    1
    28    20    19   ar
    29    20    45    1
    30    21    20   ar
    31    21    46    1
    32    22    21   ar
    33    22    47    1
    34    23    22   ar
    35    23    48    1
    36    24    23   ar
    37    24    19   ar
    38    24    49    1
    39    25    18   ar
    40    26    25    2
    41    27    25   ar
    42    28    27   ar
    43    28    16   ar
    44    29    28   ar
    45    29    50    1
    46    30    29   ar
    47    31    30   ar
    48    31    27   ar
    49    32    31    1
    50    33    32   ar
    51    33    51    1
    52    34    33   ar
    53    34    52    1
    54    35    34   ar
    55    35    53    1
    56    36    35   ar
    57    36    54    1
    58    37    36   ar
    59    37    32   ar
    60    37    55    1
@<TRIPOS>MOLECULE
mol_188_akc_jhet3990
>183.sdf
 40 43 0 0 0
SMALL
GASTEIGER

@<TRIPOS>ATOM
      1 N           1.0419   -0.4028   -0.4469 N.1     1  UNL1       -0.1908
      2 C           2.1852   -0.2868   -0.3384 C.1     1  UNL1        0.1021
      3 C           3.6050   -0.1319   -0.1645 C.ar    1  UNL1        0.0877
      4 C           4.2463    1.0961   -0.2598 C.ar    1  UNL1        0.1190
      5 S           5.9408    0.8890   -0.0380 S.2     1  UNL1       -0.0727
      6 C           5.8173   -0.8041    0.1347 C.ar    1  UNL1       -0.0037
      7 C           4.5007   -1.2375    0.0790 C.ar    1  UNL1       -0.0177
      8 C           4.0621   -2.6776    0.1959 C.3     1  UNL1       -0.0256
      9 C           4.9538   -3.6261   -0.5997 C.3     1  UNL1       -0.0490
     10 C           6.2440   -4.0204    0.1205 C.3     1  UNL1       -0.0524
     11 C           6.9105   -2.9384    0.9728 C.3     1  UNL1       -0.0486
     12 C           7.0903   -1.6000    0.2646 C.3     1  UNL1       -0.0211
     13 N           3.8392    2.3599   -0.5548 N.2     1  UNL1       -0.2451
     14 C           2.7055    2.7633   -0.0842 C.2     1  UNL1        0.0522
     15 C           2.2626    4.0953   -0.3810 C.ar    1  UNL1        0.0586
     16 C           0.9975    4.6343   -0.2850 C.ar    1  UNL1       -0.0278
     17 C           1.1189    6.0424   -0.4283 C.ar    1  UNL1        0.0003
     18 C           0.2142    7.1099   -0.3094 C.ar    1  UNL1       -0.0526
     19 C           0.7291    8.4010   -0.1606 C.ar    1  UNL1       -0.0611
     20 C           2.0971    8.6434   -0.2832 C.ar    1  UNL1       -0.0598
     21 C           2.9875    7.6162   -0.6097 C.ar    1  UNL1       -0.0378
     22 C           2.4703    6.3181   -0.6272 C.ar    1  UNL1        0.0469
     23 N           3.1018    5.1061   -0.7873 N.ar    1  UNL1       -0.3534
     24 H           3.0419   -2.7812   -0.1910 H       1  UNL1        0.0314
     25 H           4.0189   -2.9655    1.2532 H       1  UNL1        0.0314
     26 H           5.1972   -3.1830   -1.5736 H       1  UNL1        0.0268
     27 H           4.3948   -4.5449   -0.8164 H       1  UNL1        0.0268
     28 H           6.0352   -4.8783    0.7726 H       1  UNL1        0.0265
     29 H           6.9584   -4.3820   -0.6316 H       1  UNL1        0.0265
     30 H           6.3532   -2.8014    1.9067 H       1  UNL1        0.0269
     31 H           7.9012   -3.3115    1.2610 H       1  UNL1        0.0269
     32 H           7.5186   -1.7546   -0.7332 H       1  UNL1        0.0318
     33 H           7.8203   -1.0178    0.8392 H       1  UNL1        0.0318
     34 H           2.0496    2.1589    0.5644 H       1  UNL1        0.0851
     35 H           0.0966    4.0980   -0.0149 H       1  UNL1        0.0645
     36 H          -0.8537    6.9283   -0.2367 H       1  UNL1        0.0624
     37 H           0.0547    9.2167    0.0859 H       1  UNL1        0.0618
     38 H           2.4796    9.6477   -0.1179 H       1  UNL1        0.0618
     39 H           4.0442    7.8129   -0.7543 H       1  UNL1        0.0638
     40 H           4.0869    4.9784   -0.9729 H       1  UNL1        0.1659
@<TRIPOS>BOND
     1     2     1    3
     2     3     2    1
     3     4     3   ar
     4     5     4   ar
     5     6     5   ar
     6     7     6   ar
     7     7     3   ar
     8     8     7    1
     9     8    24    1
    10     8    25    1
    11     9     8    1
    12     9    26    1
    13     9    27    1
    14    10     9    1
    15    10    28    1
    16    10    29    1
    17    11    10    1
    18    11    30    1
    19    11    31    1
    20    12    11    1
    21    12     6    1
    22    12    32    1
    23    12    33    1
    24    13     4    1
    25    14    13    2
    26    14    34    1
    27    15    14    1
    28    16    15   ar
    29    16    35    1
    30    17    16   ar
    31    18    17   ar
    32    18    36    1
    33    19    18   ar
    34    19    37    1
    35    20    19   ar
    36    20    38    1
    37    21    20   ar
    38    21    39    1
    39    22    21   ar
    40    22    17   ar
    41    23    22   ar
    42    23    15   ar
    43    23    40    1
@<TRIPOS>MOLECULE
mol_189_akc_acsjmedchem9b02016
>184.sdf
 72 75 0 0 0
SMALL
GASTEIGER

@<TRIPOS>ATOM
      1 O           2.9909    0.7174   -0.7130 O.2     1  UNL1       -0.2737
      2 C           2.3387    0.0379    0.0718 C.2     1  UNL1        0.2357
      3 C           0.8281   -0.1090    0.0109 C.3     1  UNL1        0.0259
      4 C           0.1500    0.8550   -0.9617 C.3     1  UNL1       -0.0447
      5 C           0.4624    0.5303   -2.4219 C.3     1  UNL1       -0.0526
      6 C          -0.2545    1.4778   -3.3811 C.3     1  UNL1       -0.0526
      7 C           0.2635    1.3401   -4.8115 C.3     1  UNL1       -0.0448
      8 C           0.0863   -0.0602   -5.4023 C.3     1  UNL1        0.0243
      9 C           0.5928   -0.1103   -6.8294 C.2     1  UNL1        0.2172
     10 O           1.2150    0.8276   -7.3233 O.2     1  UNL1       -0.2755
     11 N           0.2564   -1.2967   -7.4614 N.am    1  UNL1       -0.2855
     12 C           0.4317   -1.5924   -8.8297 C.ar    1  UNL1        0.0334
     13 C           1.1376   -0.7702   -9.7106 C.ar    1  UNL1       -0.0405
     14 C           1.1890   -1.0693  -11.0753 C.ar    1  UNL1       -0.0600
     15 C           0.5443   -2.1955  -11.5665 C.ar    1  UNL1       -0.0616
     16 C          -0.1296   -3.0457  -10.6918 C.ar    1  UNL1       -0.0600
     17 C          -0.1774   -2.7504   -9.3263 C.ar    1  UNL1       -0.0405
     18 N           2.8860   -0.6911    1.1072 N.am    1  UNL1       -0.1929
     19 O           4.2829   -0.4779    1.2706 O.3     1  UNL1       -0.2590
     20 C           4.7770   -0.5594    2.6463 C.3     1  UNL1        0.1697
     21 C           4.3090   -1.9481    3.1918 C.ar    1  UNL1       -0.0047
     22 C           4.9510   -3.1382    2.8081 C.ar    1  UNL1       -0.0551
     23 C           4.4847   -4.3831    3.2474 C.ar    1  UNL1       -0.0614
     24 C           3.3538   -4.4703    4.0579 C.ar    1  UNL1       -0.0617
     25 C           2.6801   -3.3115    4.4257 C.ar    1  UNL1       -0.0614
     26 C           3.1486   -2.0727    3.9953 C.ar    1  UNL1       -0.0551
     27 C           6.3314   -0.4249    2.5136 C.ar    1  UNL1       -0.0047
     28 C           6.9290    0.0173    1.3118 C.ar    1  UNL1       -0.0551
     29 C           8.3058    0.2482    1.2198 C.ar    1  UNL1       -0.0614
     30 C           9.1203    0.0602    2.3303 C.ar    1  UNL1       -0.0617
     31 C           8.5661   -0.4064    3.5174 C.ar    1  UNL1       -0.0614
     32 C           7.1941   -0.6684    3.6005 C.ar    1  UNL1       -0.0551
     33 C           4.2533    0.6280    3.5201 C.ar    1  UNL1       -0.0047
     34 C           3.5068    1.6915    2.9880 C.ar    1  UNL1       -0.0551
     35 C           2.9149    2.6463    3.8233 C.ar    1  UNL1       -0.0614
     36 C           3.1090    2.5964    5.2010 C.ar    1  UNL1       -0.0617
     37 C           3.9118    1.6050    5.7474 C.ar    1  UNL1       -0.0614
     38 C           4.4745    0.6351    4.9182 C.ar    1  UNL1       -0.0551
     39 H           0.5908   -1.1460   -0.2551 H       1  UNL1        0.0359
     40 H           0.4313    0.0796    1.0155 H       1  UNL1        0.0359
     41 H          -0.9350    0.7951   -0.8106 H       1  UNL1        0.0270
     42 H           0.4499    1.8852   -0.7351 H       1  UNL1        0.0270
     43 H           1.5387    0.5993   -2.6069 H       1  UNL1        0.0265
     44 H           0.1672   -0.5041   -2.6288 H       1  UNL1        0.0265
     45 H          -1.3349    1.2947   -3.3526 H       1  UNL1        0.0265
     46 H          -0.0975    2.5158   -3.0620 H       1  UNL1        0.0265
     47 H          -0.2571    2.0703   -5.4437 H       1  UNL1        0.0270
     48 H           1.3258    1.6166   -4.8358 H       1  UNL1        0.0270
     49 H           0.6478   -0.8040   -4.8268 H       1  UNL1        0.0358
     50 H          -0.9745   -0.3352   -5.3890 H       1  UNL1        0.0358
     51 H          -0.2588   -1.9767   -6.9175 H       1  UNL1        0.1548
     52 H           1.6589    0.1193   -9.3731 H       1  UNL1        0.0636
     53 H           1.7273   -0.4019  -11.7460 H       1  UNL1        0.0618
     54 H           0.5669   -2.4117  -12.6316 H       1  UNL1        0.0618
     55 H          -0.6300   -3.9313  -11.0751 H       1  UNL1        0.0618
     56 H          -0.7220   -3.4223   -8.6680 H       1  UNL1        0.0636
     57 H           2.3383   -0.9170    1.9269 H       1  UNL1        0.1825
     58 H           5.8180   -3.1098    2.1490 H       1  UNL1        0.0621
     59 H           4.9983   -5.2910    2.9416 H       1  UNL1        0.0618
     60 H           2.9886   -5.4385    4.3887 H       1  UNL1        0.0618
     61 H           1.7859   -3.3685    5.0396 H       1  UNL1        0.0618
     62 H           2.5725   -1.1962    4.2895 H       1  UNL1        0.0621
     63 H           6.3274    0.2033    0.4223 H       1  UNL1        0.0621
     64 H           8.7343    0.5943    0.2822 H       1  UNL1        0.0618
     65 H          10.1834    0.2768    2.2701 H       1  UNL1        0.0618
     66 H           9.1998   -0.5568    4.3876 H       1  UNL1        0.0618
     67 H           6.8099   -1.0515    4.5410 H       1  UNL1        0.0621
     68 H           3.3600    1.7909    1.9155 H       1  UNL1        0.0621
     69 H           2.2993    3.4325    3.3932 H       1  UNL1        0.0618
     70 H           2.6442    3.3357    5.8476 H       1  UNL1        0.0618
     71 H           4.0893    1.5683    6.8191 H       1  UNL1        0.0618
     72 H           5.0546   -0.1516    5.3923 H       1  UNL1        0.0621
@<TRIPOS>BOND
     1     2     1    2
     2     3     2    1
     3     3    39    1
     4     3    40    1
     5     4     3    1
     6     4    41    1
     7     4    42    1
     8     5     4    1
     9     5    43    1
    10     5    44    1
    11     6     5    1
    12     6    45    1
    13     6    46    1
    14     7     6    1
    15     7    47    1
    16     7    48    1
    17     8     7    1
    18     8    49    1
    19     8    50    1
    20     9     8    1
    21    10     9    2
    22    11     9   am
    23    11    51    1
    24    12    11    1
    25    13    12   ar
    26    13    52    1
    27    14    13   ar
    28    14    53    1
    29    15    14   ar
    30    15    54    1
    31    16    15   ar
    32    16    55    1
    33    17    16   ar
    34    17    12   ar
    35    17    56    1
    36    18     2   am
    37    18    57    1
    38    19    18    1
    39    20    19    1
    40    21    20    1
    41    22    21   ar
    42    22    58    1
    43    23    22   ar
    44    23    59    1
    45    24    23   ar
    46    24    60    1
    47    25    24   ar
    48    25    61    1
    49    26    25   ar
    50    26    21   ar
    51    26    62    1
    52    27    20    1
    53    28    27   ar
    54    28    63    1
    55    29    28   ar
    56    29    64    1
    57    30    29   ar
    58    30    65    1
    59    31    30   ar
    60    31    66    1
    61    32    31   ar
    62    32    27   ar
    63    32    67    1
    64    33    20    1
    65    34    33   ar
    66    34    68    1
    67    35    34   ar
    68    35    69    1
    69    36    35   ar
    70    36    70    1
    71    37    36   ar
    72    37    71    1
    73    38    37   ar
    74    38    33   ar
    75    38    72    1
@<TRIPOS>MOLECULE
mol_18_akc_aac02529_15
>18.sdf
 24 25 0 0 0
SMALL
GASTEIGER

@<TRIPOS>ATOM
      1 BR          5.8021    0.4322    2.3319 Br      1  UNL1        0.0000
      2 C           3.9496    0.0065    2.5472 C.ar    1  UNL1        0.0000
      3 C           2.8533    0.8273    2.2791 C.ar    1  UNL1        0.0000
      4 C           2.9607    2.2393    1.7807 C.3     1  UNL1        0.0000
      5 SE          2.2095    2.4258   -0.0122 Se      1  UNL1        0.0000
      6 SE          2.5137    4.8042   -0.0150 Se      1  UNL1        0.0000
      7 C           4.4456    4.6490   -0.2554 C.3     1  UNL1        0.0000
      8 C           5.0872    5.9938   -0.4384 C.ar    1  UNL1        0.0000
      9 C           5.9967    6.5539    0.4604 C.ar    1  UNL1        0.0000
     10 BR          6.6180    5.8051    2.1076 Br      1  UNL1        0.0000
     11 S           6.4908    8.0460   -0.1299 S.2     1  UNL1        0.0000
     12 C           5.5619    8.0039   -1.5300 C.ar    1  UNL1        0.0000
     13 C           4.8430    6.8157   -1.5493 C.ar    1  UNL1        0.0000
     14 C           1.6239    0.1989    2.5418 C.ar    1  UNL1        0.0000
     15 C           1.7572   -1.0978    3.0212 C.ar    1  UNL1        0.0000
     16 S           3.3926   -1.4738    3.1082 S.2     1  UNL1        0.0000
     17 H           2.4347    2.9093    2.4903 H       1  UNL1        0.0000
     18 H           4.0269    2.5129    1.7300 H       1  UNL1        0.0000
     19 H           4.8620    4.1816    0.6509 H       1  UNL1        0.0000
     20 H           4.6745    4.0211   -1.1404 H       1  UNL1        0.0000
     21 H           5.5319    8.7724   -2.2898 H       1  UNL1        0.0000
     22 H           4.1730    6.5466   -2.3567 H       1  UNL1        0.0000
     23 H           0.6657    0.6789    2.4023 H       1  UNL1        0.0000
     24 H           0.9441   -1.7554    3.2965 H       1  UNL1        0.0000
@<TRIPOS>BOND
     1     2     1    1
     2     3     2   ar
     3     4     3    1
     4     4    17    1
     5     4    18    1
     6     5     4    1
     7     6     5    1
     8     7     6    1
     9     7    19    1
    10     7    20    1
    11     8     7    1
    12     9     8   ar
    13    10     9    1
    14    11     9   ar
    15    12    11   ar
    16    12    21    1
    17    13    12   ar
    18    13     8   ar
    19    13    22    1
    20    14     3   ar
    21    14    23    1
    22    15    14   ar
    23    15    24    1
    24    16    15   ar
    25    16     2   ar
@<TRIPOS>MOLECULE
mol_190_akc_0103_505320200003
>185.sdf
 39 43 0 0 0
SMALL
GASTEIGER

@<TRIPOS>ATOM
      1 CL          2.4840    2.3733   -1.2996 Cl      1  UNL1       -0.0829
      2 C           1.5598    1.0518   -0.6617 C.ar    1  UNL1        0.0502
      3 C           0.2736    1.2006   -0.0987 C.ar    1  UNL1        0.0207
      4 C          -0.3338    0.0228    0.3987 C.ar    1  UNL1       -0.0511
      5 C           0.3161   -1.2159    0.3939 C.ar    1  UNL1       -0.0610
      6 C           1.5813   -1.3292   -0.1623 C.ar    1  UNL1       -0.0603
      7 C           2.1944   -0.2023   -0.7019 C.ar    1  UNL1       -0.0427
      8 C          -0.4539    2.4848   -0.0335 C.ar    1  UNL1        0.0970
      9 C          -1.2955    2.8739    1.0250 C.ar    1  UNL1        0.0739
     10 N          -1.5724    2.2695    2.2332 N.ar    1  UNL1       -0.3525
     11 C          -2.5555    2.9391    2.9160 C.ar    1  UNL1        0.0475
     12 C          -2.8492    4.0850    2.1855 C.ar    1  UNL1        0.0075
     13 C          -3.8218    4.9709    2.6901 C.ar    1  UNL1       -0.0520
     14 C          -4.4735    4.6658    3.8940 C.ar    1  UNL1       -0.0611
     15 C          -4.1635    3.5034    4.5943 C.ar    1  UNL1       -0.0598
     16 C          -3.1921    2.6165    4.1228 C.ar    1  UNL1       -0.0378
     17 C          -2.0388    4.0580    1.0053 C.ar    1  UNL1        0.0117
     18 C          -1.8916    4.9212   -0.0905 C.ar    1  UNL1       -0.0213
     19 C          -1.0298    4.5097   -1.0965 C.ar    1  UNL1        0.1262
     20 N          -0.3612    3.3296   -1.0919 N.ar    1  UNL1       -0.2398
     21 C          -0.8187    5.3983   -2.2656 C.2     1  UNL1        0.2366
     22 N          -1.4003    6.5416   -2.4747 N.2     1  UNL1       -0.2456
     23 C          -0.8870    6.9458   -3.7898 C.3     1  UNL1        0.0775
     24 C           0.2685    6.0145   -4.0731 C.3     1  UNL1        0.1108
     25 O           0.0813    4.9380   -3.1711 O.2     1  UNL1       -0.4733
     26 H          -1.3528    0.0459    0.7809 H       1  UNL1        0.0625
     27 H          -0.1771   -2.0909    0.8094 H       1  UNL1        0.0618
     28 H           2.0867   -2.2911   -0.1866 H       1  UNL1        0.0618
     29 H           3.1797   -0.3004   -1.1538 H       1  UNL1        0.0632
     30 H          -1.1385    1.4208    2.5628 H       1  UNL1        0.1660
     31 H          -4.0821    5.8761    2.1480 H       1  UNL1        0.0624
     32 H          -5.2319    5.3430    4.2803 H       1  UNL1        0.0618
     33 H          -4.6831    3.2810    5.5235 H       1  UNL1        0.0618
     34 H          -2.9511    1.7121    4.6705 H       1  UNL1        0.0638
     35 H          -2.4273    5.8619   -0.1515 H       1  UNL1        0.0647
     36 H          -0.5679    7.9928   -3.7908 H       1  UNL1        0.0543
     37 H          -1.6782    6.8317   -4.5393 H       1  UNL1        0.0543
     38 H           0.2607    5.6492   -5.1044 H       1  UNL1        0.0716
     39 H           1.2367    6.4861   -3.8726 H       1  UNL1        0.0716
@<TRIPOS>BOND
     1     2     1    1
     2     3     2   ar
     3     4     3   ar
     4     4    26    1
     5     5     4   ar
     6     5    27    1
     7     6     5   ar
     8     6    28    1
     9     7     6   ar
    10     7     2   ar
    11     7    29    1
    12     8     3    1
    13     9     8   ar
    14    10     9   ar
    15    10    30    1
    16    11    10   ar
    17    12    11   ar
    18    13    12   ar
    19    13    31    1
    20    14    13   ar
    21    14    32    1
    22    15    14   ar
    23    15    33    1
    24    16    15   ar
    25    16    11   ar
    26    16    34    1
    27    17    12   ar
    28    17     9   ar
    29    18    17   ar
    30    18    35    1
    31    19    18   ar
    32    20    19   ar
    33    20     8   ar
    34    21    19    1
    35    22    21    2
    36    23    22    1
    37    23    36    1
    38    23    37    1
    39    24    23    1
    40    24    38    1
    41    24    39    1
    42    25    24    1
    43    25    21    1
@<TRIPOS>MOLECULE
mol_191_akc_cbdv202000142
>186.sdf
 36 38 0 0 0
SMALL
GASTEIGER

@<TRIPOS>ATOM
      1 C          -2.8296    0.6074    1.3144 C.3     1  UNL1       -0.0527
      2 C          -2.5345   -0.8380    0.9275 C.3     1  UNL1       -0.0480
      3 C          -1.0492   -1.1623    1.0743 C.3     1  UNL1        0.0069
      4 C          -0.1608   -0.1952    0.2760 C.3     1  UNL1        0.2349
      5 C          -0.4608    1.2517    0.6979 C.3     1  UNL1        0.0069
      6 C          -1.9447    1.5942    0.5570 C.3     1  UNL1       -0.0480
      7 O           1.1972   -0.5696    0.5745 O.3     1  UNL1       -0.1937
      8 O           2.0952    0.2265   -0.2729 O.3     1  UNL1       -0.1937
      9 C           1.7901   -0.0788   -1.6446 C.3     1  UNL1        0.2349
     10 C           2.7390    0.7551   -2.5122 C.3     1  UNL1        0.0069
     11 C           2.5902    0.4972   -4.0154 C.3     1  UNL1       -0.0480
     12 C           1.7398   -0.7214   -4.3633 C.3     1  UNL1       -0.0527
     13 C           2.0217   -1.9080   -3.4521 C.3     1  UNL1       -0.0480
     14 C           2.0120   -1.5701   -1.9578 C.3     1  UNL1        0.0069
     15 O           0.4541    0.3672   -1.9259 O.3     1  UNL1       -0.1937
     16 O          -0.4651   -0.4309   -1.1120 O.3     1  UNL1       -0.1937
     17 H          -3.8842    0.8325    1.1193 H       1  UNL1        0.0265
     18 H          -2.6711    0.7324    2.3929 H       1  UNL1        0.0265
     19 H          -3.1224   -1.5164    1.5558 H       1  UNL1        0.0267
     20 H          -2.8523   -1.0125   -0.1078 H       1  UNL1        0.0267
     21 H          -0.7666   -1.1395    2.1348 H       1  UNL1        0.0319
     22 H          -0.8751   -2.1914    0.7341 H       1  UNL1        0.0319
     23 H          -0.1412    1.4047    1.7361 H       1  UNL1        0.0319
     24 H           0.1193    1.9610    0.0965 H       1  UNL1        0.0319
     25 H          -2.2231    1.5942   -0.5040 H       1  UNL1        0.0267
     26 H          -2.1243    2.6084    0.9315 H       1  UNL1        0.0267
     27 H           2.5863    1.8248   -2.3176 H       1  UNL1        0.0319
     28 H           3.7767    0.5526   -2.2135 H       1  UNL1        0.0319
     29 H           3.5905    0.3763   -4.4498 H       1  UNL1        0.0267
     30 H           2.1570    1.3810   -4.4994 H       1  UNL1        0.0267
     31 H           1.9127   -1.0055   -5.4078 H       1  UNL1        0.0265
     32 H           0.6770   -0.4581   -4.2985 H       1  UNL1        0.0265
     33 H           3.0020   -2.3287   -3.7092 H       1  UNL1        0.0267
     34 H           1.2916   -2.7006   -3.6532 H       1  UNL1        0.0267
     35 H           2.9628   -1.8940   -1.5149 H       1  UNL1        0.0319
     36 H           1.2501   -2.1900   -1.4710 H       1  UNL1        0.0319
@<TRIPOS>BOND
     1     1    17    1
     2     1    18    1
     3     2     1    1
     4     2    19    1
     5     2    20    1
     6     3     2    1
     7     3    21    1
     8     3    22    1
     9     4     3    1
    10     5     4    1
    11     5    23    1
    12     5    24    1
    13     6     5    1
    14     6     1    1
    15     6    25    1
    16     6    26    1
    17     7     4    1
    18     8     7    1
    19     9     8    1
    20    10     9    1
    21    10    27    1
    22    10    28    1
    23    11    10    1
    24    11    29    1
    25    11    30    1
    26    12    11    1
    27    12    31    1
    28    12    32    1
    29    13    12    1
    30    13    33    1
    31    13    34    1
    32    14    13    1
    33    14     9    1
    34    14    35    1
    35    14    36    1
    36    15     9    1
    37    16    15    1
    38    16     4    1
@<TRIPOS>MOLECULE
mol_192_akc_s0031182021002079
>187.sdf
 33 35 0 0 0
SMALL
GASTEIGER

@<TRIPOS>ATOM
      1 C          -2.4805    1.0258   -0.8210 C.3     1  UNL1        0.0135
      2 N          -1.1432    0.6253   -1.1903 N.ar    1  UNL1       -0.3275
      3 C          -0.8668   -0.4514   -1.9973 C.ar    1  UNL1        0.0554
      4 C           0.4976   -0.4208   -2.1793 C.ar    1  UNL1        0.2333
      5 N           1.0550    0.6522   -1.5173 N.ar    1  UNL1       -0.1999
      6 C           0.0466    1.2552   -0.8952 C.ar    1  UNL1        0.1987
      7 C           0.2595    2.4632   -0.1001 C.2     1  UNL1        0.2839
      8 O          -0.5902    2.9526    0.6349 O.2     1  UNL1       -0.2665
      9 N           1.5046    3.0015   -0.3679 N.am    1  UNL1       -0.2784
     10 C           1.9729    4.2873   -0.0234 C.ar    1  UNL1        0.0444
     11 C           2.9244    4.9264   -0.8667 C.ar    1  UNL1        0.0216
     12 C           3.4540    4.3704   -2.0629 C.ar    1  UNL1       -0.0508
     13 C           4.3241    5.0911   -2.8785 C.ar    1  UNL1       -0.0610
     14 C           4.6888    6.3775   -2.5165 C.ar    1  UNL1       -0.0597
     15 C           4.1889    6.9297   -1.3358 C.ar    1  UNL1       -0.0357
     16 C           3.3168    6.2351   -0.5062 C.ar    1  UNL1        0.0727
     17 N           2.8660    6.8576    0.5935 N.ar    1  UNL1       -0.2549
     18 C           1.9811    6.2086    1.3758 C.ar    1  UNL1        0.0300
     19 C           1.5013    4.9437    1.1092 C.ar    1  UNL1       -0.0217
     20 N           1.3124   -1.3240   -2.9600 N.pl3   1  UNL1        0.0767
     21 O           0.7235   -2.2612   -3.5218 O.2     1  UNL1       -0.1246
     22 O           2.5273   -1.0966   -3.0164 O.2     1  UNL1       -0.1246
     23 H          -3.0925    1.0455   -1.7281 H       1  UNL1        0.0456
     24 H          -2.8745    0.2899   -0.1167 H       1  UNL1        0.0456
     25 H          -2.4887    2.0191   -0.3761 H       1  UNL1        0.0456
     26 H          -1.6340   -1.1153   -2.3734 H       1  UNL1        0.0849
     27 H           2.0227    2.4726   -1.0624 H       1  UNL1        0.1552
     28 H           3.1824    3.3726   -2.3950 H       1  UNL1        0.0625
     29 H           4.7035    4.6494   -3.7969 H       1  UNL1        0.0618
     30 H           5.3549    6.9578   -3.1491 H       1  UNL1        0.0618
     31 H           4.4741    7.9426   -1.0612 H       1  UNL1        0.0639
     32 H           1.6544    6.7554    2.2562 H       1  UNL1        0.0830
     33 H           0.7990    4.4893    1.7979 H       1  UNL1        0.0651
@<TRIPOS>BOND
     1     1    23    1
     2     1    24    1
     3     1    25    1
     4     2     1    1
     5     3     2   ar
     6     3    26    1
     7     4     3   ar
     8     5     4   ar
     9     6     5   ar
    10     6     2   ar
    11     7     6    1
    12     8     7    2
    13     9     7   am
    14     9    27    1
    15    10     9    1
    16    11    10   ar
    17    12    11   ar
    18    12    28    1
    19    13    12   ar
    20    13    29    1
    21    14    13   ar
    22    14    30    1
    23    15    14   ar
    24    15    31    1
    25    16    15   ar
    26    16    11   ar
    27    17    16   ar
    28    18    17   ar
    29    18    32    1
    30    19    18   ar
    31    19    10   ar
    32    19    33    1
    33    20     4    1
    34    21    20    2
    35    22    20    2
@<TRIPOS>MOLECULE
mol_193_akc_s0031182021002079
>188.sdf
 40 42 0 0 0
SMALL
GASTEIGER

@<TRIPOS>ATOM
      1 C           2.8601    0.9347    1.1771 C.3     1  UNL1       -0.0424
      2 C           2.4499   -0.0268    0.0507 C.3     1  UNL1        0.0465
      3 N           2.9727   -1.3659    0.3082 N.am    1  UNL1       -0.3023
      4 C           2.1833   -2.4323    0.6909 C.2     1  UNL1        0.2801
      5 O           0.9692   -2.3422    0.8153 O.2     1  UNL1       -0.2668
      6 C           2.9434   -3.6577    0.9416 C.ar    1  UNL1        0.1984
      7 N           4.2719   -3.6959    0.8973 N.ar    1  UNL1       -0.1999
      8 C           4.6214   -4.9946    1.2145 C.ar    1  UNL1        0.2333
      9 C           3.5016   -5.7594    1.4515 C.ar    1  UNL1        0.0554
     10 N           2.4439   -4.9060    1.2642 N.ar    1  UNL1       -0.3275
     11 C           1.0676   -5.3218    1.3939 C.3     1  UNL1        0.0135
     12 N           6.0018   -5.4229    1.2756 N.pl3   1  UNL1        0.0767
     13 O           6.2043   -6.6083    1.5779 O.2     1  UNL1       -0.1246
     14 O           6.8743   -4.5782    1.0251 O.2     1  UNL1       -0.1246
     15 C           2.8938    0.4642   -1.3274 C.ar    1  UNL1       -0.0198
     16 C           1.9784    0.7770   -2.3847 C.ar    1  UNL1       -0.0130
     17 C           0.5648    0.7716   -2.2693 C.ar    1  UNL1       -0.0537
     18 C          -0.2734    1.0561   -3.3546 C.ar    1  UNL1       -0.0612
     19 C           0.2708    1.3491   -4.5955 C.ar    1  UNL1       -0.0612
     20 C           1.6535    1.3892   -4.7429 C.ar    1  UNL1       -0.0540
     21 C           2.5078    1.1255   -3.6586 C.ar    1  UNL1       -0.0176
     22 C           3.8921    1.2118   -3.8507 C.ar    1  UNL1       -0.0540
     23 C           4.7743    0.9573   -2.8091 C.ar    1  UNL1       -0.0609
     24 C           4.2816    0.5786   -1.5665 C.ar    1  UNL1       -0.0562
     25 H           1.9931    1.5250    1.4960 H       1  UNL1        0.0251
     26 H           3.2297    0.3991    2.0587 H       1  UNL1        0.0251
     27 H           3.6293    1.6530    0.8749 H       1  UNL1        0.0251
     28 H           1.3629   -0.1027    0.0954 H       1  UNL1        0.0546
     29 H           3.9707   -1.5419    0.2578 H       1  UNL1        0.1497
     30 H           3.3790   -6.7991    1.7226 H       1  UNL1        0.0849
     31 H           0.9433   -6.2636    0.8507 H       1  UNL1        0.0456
     32 H           0.8574   -5.4745    2.4558 H       1  UNL1        0.0456
     33 H           0.3861   -4.5861    0.9722 H       1  UNL1        0.0456
     34 H           0.0766    0.5546   -1.3238 H       1  UNL1        0.0624
     35 H          -1.3527    1.0434   -3.2249 H       1  UNL1        0.0618
     36 H          -0.3748    1.5530   -5.4455 H       1  UNL1        0.0618
     37 H           2.0645    1.6301   -5.7216 H       1  UNL1        0.0624
     38 H           4.2983    1.4882   -4.8216 H       1  UNL1        0.0624
     39 H           5.8457    1.0421   -2.9700 H       1  UNL1        0.0618
     40 H           4.9957    0.3668   -0.7729 H       1  UNL1        0.0621
@<TRIPOS>BOND
     1     1    25    1
     2     1    26    1
     3     1    27    1
     4     3     2    1
     5     3    29    1
     6     4     3   am
     7     5     4    2
     8     6     4    1
     9     7     6   ar
    10     8     7   ar
    11     9     8   ar
    12     9    30    1
    13    10     9   ar
    14    10     6   ar
    15    11    10    1
    16    11    31    1
    17    11    32    1
    18    11    33    1
    19    12     8    1
    20    13    12    2
    21    14    12    2
    22    15     2    1
    23    16    15   ar
    24    17    16   ar
    25    17    34    1
    26    18    17   ar
    27    18    35    1
    28    19    18   ar
    29    19    36    1
    30    20    19   ar
    31    20    37    1
    32    21    20   ar
    33    21    16   ar
    34    22    21   ar
    35    22    38    1
    36    23    22   ar
    37    23    39    1
    38    24    23   ar
    39    24    15   ar
    40    24    40    1
    41     2    28    1
    42     2     1    1
@<TRIPOS>MOLECULE
mol_194_akc
>189.sdf
 64 68 0 0 0
SMALL
GASTEIGER

@<TRIPOS>ATOM
      1 O           3.1856    0.2792   -2.8935 O.2     1  UNL1       -0.2754
      2 C           3.4808    0.2250   -1.7053 C.2     1  UNL1        0.2178
      3 C           2.9415    1.1878   -0.6519 C.3     1  UNL1        0.0491
      4 C           1.9982    2.2565   -1.1609 C.ar    1  UNL1       -0.0384
      5 C           0.7390    1.9114   -1.6675 C.ar    1  UNL1       -0.0547
      6 C          -0.1592    2.8974   -2.0922 C.ar    1  UNL1       -0.0197
      7 C           0.1829    4.2476   -2.0076 C.ar    1  UNL1        0.1210
      8 O          -0.6227    5.2909   -2.3888 O.3     1  UNL1       -0.4879
      9 C          -2.0209    5.0473   -2.2481 C.3     1  UNL1        0.1093
     10 C          -2.7658    6.2909   -2.6263 C.2     1  UNL1       -0.0292
     11 C          -3.5825    6.9535   -1.7904 C.2     1  UNL1        0.0566
     12 S          -4.5767    8.2549   -2.3674 S.O2    1  UNL1        0.0182
     13 O          -4.8615    8.0736   -3.7778 O.2     1  UNL1       -0.1649
     14 O          -5.6667    8.4335   -1.4243 O.2     1  UNL1       -0.1649
     15 C          -3.5249    9.6813   -2.2169 C.ar    1  UNL1        0.0929
     16 C          -2.7686   10.0998   -3.3162 C.ar    1  UNL1       -0.0365
     17 C          -2.0190   11.2728   -3.2263 C.ar    1  UNL1       -0.0599
     18 C          -2.0342   12.0239   -2.0497 C.ar    1  UNL1       -0.0616
     19 C          -2.7950   11.6050   -0.9568 C.ar    1  UNL1       -0.0599
     20 C          -3.5475   10.4333   -1.0381 C.ar    1  UNL1       -0.0365
     21 C           1.4484    4.5982   -1.5369 C.ar    1  UNL1       -0.0197
     22 C           2.3474    3.6134   -1.1091 C.ar    1  UNL1       -0.0547
     23 N           4.3614   -0.7113   -1.1759 N.am    1  UNL1       -0.3095
     24 C           5.2204   -1.5856   -1.9912 C.3     1  UNL1        0.0353
     25 C           6.2098   -0.7347   -2.8259 C.3     1  UNL1       -0.0287
     26 C           7.1469   -1.6330   -3.6471 C.3     1  UNL1       -0.0386
     27 C           7.9584   -2.5238   -2.6941 C.3     1  UNL1       -0.0472
     28 C           7.0097   -3.4008   -1.8611 C.3     1  UNL1       -0.0386
     29 C           6.1856   -4.2873   -2.8073 C.3     1  UNL1       -0.0472
     30 C           5.3584   -3.4081   -3.7577 C.3     1  UNL1       -0.0386
     31 C           6.3050   -2.5173   -4.5813 C.3     1  UNL1       -0.0472
     32 C           4.4121   -2.5149   -2.9331 C.3     1  UNL1       -0.0287
     33 C           6.0592   -2.4983   -1.0516 C.3     1  UNL1       -0.0287
     34 H           2.4248    0.6078    0.1226 H       1  UNL1        0.0407
     35 H           3.8060    1.6649   -0.1726 H       1  UNL1        0.0407
     36 H           0.4517    0.8650   -1.7523 H       1  UNL1        0.0622
     37 H          -1.1078    2.5711   -2.5042 H       1  UNL1        0.0654
     38 H          -2.3490    4.2583   -2.9335 H       1  UNL1        0.0742
     39 H          -2.2484    4.7534   -1.2156 H       1  UNL1        0.0742
     40 H          -2.6717    6.5965   -3.6669 H       1  UNL1        0.0618
     41 H          -3.7240    6.6613   -0.7591 H       1  UNL1        0.0821
     42 H          -2.7729    9.5347   -4.2455 H       1  UNL1        0.0637
     43 H          -1.4361   11.6119   -4.0793 H       1  UNL1        0.0618
     44 H          -1.4620   12.9469   -1.9892 H       1  UNL1        0.0618
     45 H          -2.8150   12.2022   -0.0483 H       1  UNL1        0.0618
     46 H          -4.1607   10.1293   -0.1925 H       1  UNL1        0.0637
     47 H           1.7343    5.6462   -1.4898 H       1  UNL1        0.0654
     48 H           3.3207    3.9211   -0.7339 H       1  UNL1        0.0622
     49 H           4.6171   -0.6022   -0.2028 H       1  UNL1        0.1492
     50 H           5.6695   -0.0633   -3.5038 H       1  UNL1        0.0288
     51 H           6.7999   -0.0891   -2.1619 H       1  UNL1        0.0288
     52 H           7.8266   -1.0101   -4.2390 H       1  UNL1        0.0302
     53 H           8.6468   -3.1555   -3.2692 H       1  UNL1        0.0271
     54 H           8.5745   -1.9033   -2.0319 H       1  UNL1        0.0271
     55 H           7.5934   -4.0311   -1.1806 H       1  UNL1        0.0302
     56 H           6.8515   -4.9403   -3.3855 H       1  UNL1        0.0271
     57 H           5.5234   -4.9419   -2.2281 H       1  UNL1        0.0271
     58 H           4.7726   -4.0439   -4.4310 H       1  UNL1        0.0302
     59 H           5.7244   -1.8893   -5.2683 H       1  UNL1        0.0271
     60 H           6.9636   -3.1401   -5.1989 H       1  UNL1        0.0271
     61 H           3.7251   -3.1400   -2.3473 H       1  UNL1        0.0288
     62 H           3.7882   -1.9388   -3.6240 H       1  UNL1        0.0288
     63 H           5.3955   -3.1188   -0.4348 H       1  UNL1        0.0288
     64 H           6.6440   -1.8862   -0.3519 H       1  UNL1        0.0288
@<TRIPOS>BOND
     1     2     1    2
     2     3     2    1
     3     3    34    1
     4     3    35    1
     5     4     3    1
     6     5     4   ar
     7     5    36    1
     8     6     5   ar
     9     6    37    1
    10     7     6   ar
    11     8     7    1
    12     9     8    1
    13     9    38    1
    14     9    39    1
    15    10     9    1
    16    10    40    1
    17    11    10    2
    18    11    41    1
    19    12    11    1
    20    13    12    2
    21    14    12    2
    22    15    12    1
    23    16    15   ar
    24    16    42    1
    25    17    16   ar
    26    17    43    1
    27    18    17   ar
    28    18    44    1
    29    19    18   ar
    30    19    45    1
    31    20    19   ar
    32    20    15   ar
    33    20    46    1
    34    21     7   ar
    35    21    47    1
    36    22    21   ar
    37    22     4   ar
    38    22    48    1
    39    23     2   am
    40    23    49    1
    41    24    23    1
    42    25    24    1
    43    25    50    1
    44    25    51    1
    45    26    25    1
    46    26    52    1
    47    27    26    1
    48    27    53    1
    49    27    54    1
    50    28    27    1
    51    28    55    1
    52    29    28    1
    53    29    56    1
    54    29    57    1
    55    30    29    1
    56    30    58    1
    57    31    30    1
    58    31    26    1
    59    31    59    1
    60    31    60    1
    61    32    30    1
    62    32    24    1
    63    32    61    1
    64    32    62    1
    65    33    28    1
    66    33    24    1
    67    33    63    1
    68    33    64    1
@<TRIPOS>MOLECULE
mol_195_akc
>190.sdf
 39 42 0 0 0
SMALL
GASTEIGER

@<TRIPOS>ATOM
      1 F           2.9706    0.8639    0.2722 F       1  UNL1       -0.2055
      2 C           1.8359    0.8473   -0.4353 C.ar    1  UNL1        0.1241
      3 C           0.9656    1.9317   -0.3529 C.ar    1  UNL1       -0.0143
      4 C          -0.1942    1.9282   -1.1302 C.ar    1  UNL1        0.0397
      5 C          -0.4768    0.8345   -1.9677 C.ar    1  UNL1       -0.0495
      6 C           0.3974   -0.2471   -2.0298 C.ar    1  UNL1       -0.0583
      7 C           1.5623   -0.2377   -1.2651 C.ar    1  UNL1       -0.0264
      8 C          -1.0577    3.1279   -1.2048 C.2     1  UNL1        0.2483
      9 O          -1.5048    3.4509   -2.3021 O.2     1  UNL1       -0.2699
     10 N          -1.3251    3.7772   -0.0086 N.am    1  UNL1       -0.2815
     11 C          -1.9702    5.0311    0.0184 C.ar    1  UNL1        0.0344
     12 C          -2.9575    5.2929    0.9732 C.ar    1  UNL1       -0.0284
     13 C          -3.6770    6.5087    0.9546 C.ar    1  UNL1        0.0373
     14 C          -4.8070    6.6599    1.8854 C.ar    1  UNL1        0.1407
     15 N          -4.9629    6.0412    3.0443 N.ar    1  UNL1       -0.2277
     16 C          -6.1433    6.5132    3.5736 C.ar    1  UNL1        0.0895
     17 C          -6.7550    7.4039    2.7029 C.ar    1  UNL1        0.0665
     18 N          -5.9103    7.4456    1.6290 N.ar    1  UNL1       -0.3378
     19 C          -7.9584    8.0539    2.9766 C.ar    1  UNL1       -0.0362
     20 C          -8.5529    7.7750    4.2114 C.ar    1  UNL1       -0.0597
     21 C          -7.9660    6.8801    5.1110 C.ar    1  UNL1       -0.0596
     22 C          -6.7592    6.2358    4.8023 C.ar    1  UNL1       -0.0342
     23 C          -3.2951    7.4953    0.0226 C.ar    1  UNL1        0.0517
     24 CL         -4.0299    9.0633   -0.0668 Cl      1  UNL1       -0.0828
     25 C          -2.2649    7.2527   -0.8892 C.ar    1  UNL1       -0.0409
     26 C          -1.6227    6.0192   -0.9048 C.ar    1  UNL1       -0.0391
     27 H           1.2349    2.7808    0.2665 H       1  UNL1        0.0654
     28 H          -1.3678    0.8506   -2.5963 H       1  UNL1        0.0625
     29 H           0.1831   -1.0843   -2.6907 H       1  UNL1        0.0619
     30 H           2.2695   -1.0602   -1.3222 H       1  UNL1        0.0646
     31 H          -1.3435    3.2121    0.8324 H       1  UNL1        0.1551
     32 H          -3.2382    4.5242    1.6913 H       1  UNL1        0.0644
     33 H          -6.0381    8.0067    0.7995 H       1  UNL1        0.1674
     34 H          -8.4119    8.7487    2.2761 H       1  UNL1        0.0639
     35 H          -9.4874    8.2655    4.4769 H       1  UNL1        0.0618
     36 H          -8.4478    6.6842    6.0658 H       1  UNL1        0.0618
     37 H          -6.2984    5.5450    5.4986 H       1  UNL1        0.0639
     38 H          -1.9616    8.0168   -1.6008 H       1  UNL1        0.0633
     39 H          -0.8322    5.8471   -1.6320 H       1  UNL1        0.0636
@<TRIPOS>BOND
     1     2     1    1
     2     3     2   ar
     3     3    27    1
     4     4     3   ar
     5     5     4   ar
     6     5    28    1
     7     6     5   ar
     8     6    29    1
     9     7     6   ar
    10     7     2   ar
    11     7    30    1
    12     8     4    1
    13     9     8    2
    14    10     8   am
    15    10    31    1
    16    11    10    1
    17    12    11   ar
    18    12    32    1
    19    13    12   ar
    20    14    13    1
    21    15    14   ar
    22    16    15   ar
    23    17    16   ar
    24    18    17   ar
    25    18    14   ar
    26    18    33    1
    27    19    17   ar
    28    19    34    1
    29    20    19   ar
    30    20    35    1
    31    21    20   ar
    32    21    36    1
    33    22    21   ar
    34    22    16   ar
    35    22    37    1
    36    23    13   ar
    37    24    23    1
    38    25    23   ar
    39    25    38    1
    40    26    25   ar
    41    26    11   ar
    42    26    39    1
